taskid: 0 hostname: r3i4n29
Quilting with   1 groups of   0 I/O tasks.
 Ntasks in X            1 , ntasks in Y            1
  Domain # 1: dx =    50.000 m
WRF V4.3.3 MODEL
git commit f10d917d5c98473ea9b33e59f3ee29813454bd01 2 files changed, 137 insertions(+), 2 deletions(-)
 *************************************
 Parent domain
 ids,ide,jds,jde            1          20           1          40
 ims,ime,jms,jme           -4          25          -4          45
 ips,ipe,jps,jpe            1          20           1          40
 *************************************
DYNAMICS OPTION: Eulerian Mass Coordinate
   alloc_space_field: domain            1 ,              45336656  bytes allocated
  med_initialdata_input: calling input_input
   Input data is acceptable to use: wrfinput_d01
 CURRENT DATE          = 0001-01-01_00:00:00
 SIMULATION START DATE = 0001-01-01_00:00:00
Timing for processing wrfinput file (stream 0) for domain        1:    0.09548 elapsed seconds
Max map factor in domain 1 =  0.00. Scale the dt in the model accordingly.
FIRE:fire_driver_em_init: FIRE initialization start
FIRE:Using ideal ignition coordinates, m from the lower left domain corner
FIRE:Reading file namelist.fire
FIRE:Namelist fuel_moisture not found, using defaults
Timing for Writing wrfout_d01_0001-01-01_00:00:00 for domain        1:    0.14070 elapsed seconds
 Tile Strategy is not specified. Assuming 1D-Y
WRF TILE   1 IS      1 IE     20 JS      1 JE     40
WRF NUMBER OF TILES =   1
FIRE:Time       0.500 s Average wind           0.102E+01 m/s
FIRE:Time       0.500 s Maximum wind           0.102E+01 m/s
FIRE:Time       0.500 s Fire area              0.000E+00 m^2
FIRE:Time       0.500 s Heat output            0.000E+00 W
FIRE:Time       0.500 s Max heat flux          0.000E+00 W/m^2
FIRE:Time       0.500 s Latent heat output     0.000E+00 W
FIRE:Time       0.500 s Max latent heat flux   0.000E+00 W/m^2
d01 0001-01-01_00:00:00  ----------------------------------------
d01 0001-01-01_00:00:00  W-DAMPING  BEGINS AT W-COURANT NUMBER =    1.00000000
d01 0001-01-01_00:00:00  ----------------------------------------
Timing for main: time 0001-01-01_00:00:00 on domain   1:    0.69265 elapsed seconds
FIRE:Time       1.000 s Average wind           0.102E+01 m/s
FIRE:Time       1.000 s Maximum wind           0.102E+01 m/s
FIRE:Time       1.000 s Fire area              0.302E-01 m^2
FIRE:Time       1.000 s Heat output            0.299E+03 W
FIRE:Time       1.000 s Max heat flux          0.192E+01 W/m^2
FIRE:Time       1.000 s Latent heat output     0.275E+02 W
FIRE:Time       1.000 s Max latent heat flux   0.176E+00 W/m^2
Timing for main: time 0001-01-01_00:00:01 on domain   1:    0.48410 elapsed seconds
FIRE:Time       1.500 s Average wind           0.102E+01 m/s
FIRE:Time       1.500 s Maximum wind           0.102E+01 m/s
FIRE:Time       1.500 s Fire area              0.313E+00 m^2
FIRE:Time       1.500 s Heat output           -0.299E+03 W
FIRE:Time       1.500 s Max heat flux          0.000E+00 W/m^2
FIRE:Time       1.500 s Latent heat output    -0.275E+02 W
FIRE:Time       1.500 s Max latent heat flux   0.000E+00 W/m^2
Timing for main: time 0001-01-01_00:00:01 on domain   1:    0.46584 elapsed seconds
FIRE:Time       2.000 s Average wind           0.102E+01 m/s
FIRE:Time       2.000 s Maximum wind           0.102E+01 m/s
FIRE:Time       2.000 s Fire area              0.701E+00 m^2
FIRE:Time       2.000 s Heat output            0.513E+05 W
FIRE:Time       2.000 s Max heat flux          0.308E+03 W/m^2
FIRE:Time       2.000 s Latent heat output     0.471E+04 W
FIRE:Time       2.000 s Max latent heat flux   0.283E+02 W/m^2
Timing for main: time 0001-01-01_00:00:02 on domain   1:    0.46503 elapsed seconds
FIRE:Time       2.500 s Average wind           0.102E+01 m/s
FIRE:Time       2.500 s Maximum wind           0.102E+01 m/s
FIRE:Time       2.500 s Fire area              0.127E+01 m^2
FIRE:Time       2.500 s Heat output            0.133E+06 W
FIRE:Time       2.500 s Max heat flux          0.597E+03 W/m^2
FIRE:Time       2.500 s Latent heat output     0.122E+05 W
FIRE:Time       2.500 s Max latent heat flux   0.548E+02 W/m^2
Timing for main: time 0001-01-01_00:00:02 on domain   1:    0.50147 elapsed seconds
FIRE:Time       3.000 s Average wind           0.102E+01 m/s
FIRE:Time       3.000 s Maximum wind           0.102E+01 m/s
FIRE:Time       3.000 s Fire area              0.201E+01 m^2
FIRE:Time       3.000 s Heat output            0.231E+06 W
FIRE:Time       3.000 s Max heat flux          0.882E+03 W/m^2
FIRE:Time       3.000 s Latent heat output     0.212E+05 W
FIRE:Time       3.000 s Max latent heat flux   0.810E+02 W/m^2
Timing for main: time 0001-01-01_00:00:03 on domain   1:    0.48847 elapsed seconds
FIRE:Time       3.500 s Average wind           0.102E+01 m/s
FIRE:Time       3.500 s Maximum wind           0.102E+01 m/s
FIRE:Time       3.500 s Fire area              0.287E+01 m^2
FIRE:Time       3.500 s Heat output            0.362E+06 W
FIRE:Time       3.500 s Max heat flux          0.117E+04 W/m^2
FIRE:Time       3.500 s Latent heat output     0.332E+05 W
FIRE:Time       3.500 s Max latent heat flux   0.107E+03 W/m^2
Timing for main: time 0001-01-01_00:00:03 on domain   1:    0.46559 elapsed seconds
FIRE:Time       4.000 s Average wind           0.102E+01 m/s
FIRE:Time       4.000 s Maximum wind           0.102E+01 m/s
FIRE:Time       4.000 s Fire area              0.399E+01 m^2
FIRE:Time       4.000 s Heat output            0.512E+06 W
FIRE:Time       4.000 s Max heat flux          0.145E+04 W/m^2
FIRE:Time       4.000 s Latent heat output     0.470E+05 W
FIRE:Time       4.000 s Max latent heat flux   0.133E+03 W/m^2
Timing for main: time 0001-01-01_00:00:04 on domain   1:    0.46423 elapsed seconds
FIRE:Time       4.500 s Average wind           0.102E+01 m/s
FIRE:Time       4.500 s Maximum wind           0.102E+01 m/s
FIRE:Time       4.500 s Fire area              0.518E+01 m^2
FIRE:Time       4.500 s Heat output            0.690E+06 W
FIRE:Time       4.500 s Max heat flux          0.173E+04 W/m^2
FIRE:Time       4.500 s Latent heat output     0.633E+05 W
FIRE:Time       4.500 s Max latent heat flux   0.159E+03 W/m^2
Timing for main: time 0001-01-01_00:00:04 on domain   1:    0.46538 elapsed seconds
FIRE:Time       5.000 s Average wind           0.102E+01 m/s
FIRE:Time       5.000 s Maximum wind           0.102E+01 m/s
FIRE:Time       5.000 s Fire area              0.663E+01 m^2
FIRE:Time       5.000 s Heat output            0.864E+06 W
FIRE:Time       5.000 s Max heat flux          0.201E+04 W/m^2
FIRE:Time       5.000 s Latent heat output     0.793E+05 W
FIRE:Time       5.000 s Max latent heat flux   0.185E+03 W/m^2
Timing for main: time 0001-01-01_00:00:05 on domain   1:    0.46490 elapsed seconds
FIRE:Time       5.500 s Average wind           0.102E+01 m/s
FIRE:Time       5.500 s Maximum wind           0.102E+01 m/s
FIRE:Time       5.500 s Fire area              0.821E+01 m^2
FIRE:Time       5.500 s Heat output            0.109E+07 W
FIRE:Time       5.500 s Max heat flux          0.230E+04 W/m^2
FIRE:Time       5.500 s Latent heat output     0.100E+06 W
FIRE:Time       5.500 s Max latent heat flux   0.211E+03 W/m^2
Timing for main: time 0001-01-01_00:00:05 on domain   1:    0.46555 elapsed seconds
FIRE:Time       6.000 s Average wind           0.102E+01 m/s
FIRE:Time       6.000 s Maximum wind           0.102E+01 m/s
FIRE:Time       6.000 s Fire area              0.997E+01 m^2
FIRE:Time       6.000 s Heat output            0.135E+07 W
FIRE:Time       6.000 s Max heat flux          0.257E+04 W/m^2
FIRE:Time       6.000 s Latent heat output     0.124E+06 W
FIRE:Time       6.000 s Max latent heat flux   0.236E+03 W/m^2
Timing for main: time 0001-01-01_00:00:06 on domain   1:    0.46488 elapsed seconds
FIRE:Time       6.500 s Average wind           0.102E+01 m/s
FIRE:Time       6.500 s Maximum wind           0.102E+01 m/s
FIRE:Time       6.500 s Fire area              0.119E+02 m^2
FIRE:Time       6.500 s Heat output            0.162E+07 W
FIRE:Time       6.500 s Max heat flux          0.285E+04 W/m^2
FIRE:Time       6.500 s Latent heat output     0.149E+06 W
FIRE:Time       6.500 s Max latent heat flux   0.261E+03 W/m^2
Timing for main: time 0001-01-01_00:00:06 on domain   1:    0.46565 elapsed seconds
FIRE:Time       7.000 s Average wind           0.102E+01 m/s
FIRE:Time       7.000 s Maximum wind           0.102E+01 m/s
FIRE:Time       7.000 s Fire area              0.140E+02 m^2
FIRE:Time       7.000 s Heat output            0.193E+07 W
FIRE:Time       7.000 s Max heat flux          0.313E+04 W/m^2
FIRE:Time       7.000 s Latent heat output     0.177E+06 W
FIRE:Time       7.000 s Max latent heat flux   0.287E+03 W/m^2
Timing for main: time 0001-01-01_00:00:07 on domain   1:    0.46473 elapsed seconds
FIRE:Time       7.500 s Average wind           0.102E+01 m/s
FIRE:Time       7.500 s Maximum wind           0.102E+01 m/s
FIRE:Time       7.500 s Fire area              0.164E+02 m^2
FIRE:Time       7.500 s Heat output            0.225E+07 W
FIRE:Time       7.500 s Max heat flux          0.340E+04 W/m^2
FIRE:Time       7.500 s Latent heat output     0.206E+06 W
FIRE:Time       7.500 s Max latent heat flux   0.312E+03 W/m^2
Timing for main: time 0001-01-01_00:00:07 on domain   1:    0.46540 elapsed seconds
FIRE:Time       8.000 s Average wind           0.102E+01 m/s
FIRE:Time       8.000 s Maximum wind           0.102E+01 m/s
FIRE:Time       8.000 s Fire area              0.188E+02 m^2
FIRE:Time       8.000 s Heat output            0.260E+07 W
FIRE:Time       8.000 s Max heat flux          0.368E+04 W/m^2
FIRE:Time       8.000 s Latent heat output     0.238E+06 W
FIRE:Time       8.000 s Max latent heat flux   0.337E+03 W/m^2
Timing for main: time 0001-01-01_00:00:08 on domain   1:    0.46610 elapsed seconds
FIRE:Time       8.500 s Average wind           0.102E+01 m/s
FIRE:Time       8.500 s Maximum wind           0.102E+01 m/s
FIRE:Time       8.500 s Fire area              0.215E+02 m^2
FIRE:Time       8.500 s Heat output            0.294E+07 W
FIRE:Time       8.500 s Max heat flux          0.394E+04 W/m^2
FIRE:Time       8.500 s Latent heat output     0.270E+06 W
FIRE:Time       8.500 s Max latent heat flux   0.362E+03 W/m^2
Timing for main: time 0001-01-01_00:00:08 on domain   1:    0.48141 elapsed seconds
FIRE:Time       9.000 s Average wind           0.102E+01 m/s
FIRE:Time       9.000 s Maximum wind           0.102E+01 m/s
FIRE:Time       9.000 s Fire area              0.244E+02 m^2
FIRE:Time       9.000 s Heat output            0.334E+07 W
FIRE:Time       9.000 s Max heat flux          0.422E+04 W/m^2
FIRE:Time       9.000 s Latent heat output     0.307E+06 W
FIRE:Time       9.000 s Max latent heat flux   0.388E+03 W/m^2
Timing for main: time 0001-01-01_00:00:09 on domain   1:    0.46687 elapsed seconds
FIRE:Time       9.500 s Average wind           0.102E+01 m/s
FIRE:Time       9.500 s Maximum wind           0.102E+01 m/s
FIRE:Time       9.500 s Fire area              0.275E+02 m^2
FIRE:Time       9.500 s Heat output            0.377E+07 W
FIRE:Time       9.500 s Max heat flux          0.449E+04 W/m^2
FIRE:Time       9.500 s Latent heat output     0.346E+06 W
FIRE:Time       9.500 s Max latent heat flux   0.412E+03 W/m^2
Timing for main: time 0001-01-01_00:00:09 on domain   1:    0.46584 elapsed seconds
FIRE:Time      10.000 s Average wind           0.102E+01 m/s
FIRE:Time      10.000 s Maximum wind           0.102E+01 m/s
FIRE:Time      10.000 s Fire area              0.307E+02 m^2
FIRE:Time      10.000 s Heat output            0.421E+07 W
FIRE:Time      10.000 s Max heat flux          0.476E+04 W/m^2
FIRE:Time      10.000 s Latent heat output     0.386E+06 W
FIRE:Time      10.000 s Max latent heat flux   0.437E+03 W/m^2
Timing for main: time 0001-01-01_00:00:10 on domain   1:    0.46672 elapsed seconds
FIRE:Time      10.500 s Average wind           0.102E+01 m/s
FIRE:Time      10.500 s Maximum wind           0.102E+01 m/s
FIRE:Time      10.500 s Fire area              0.342E+02 m^2
FIRE:Time      10.500 s Heat output            0.468E+07 W
FIRE:Time      10.500 s Max heat flux          0.503E+04 W/m^2
FIRE:Time      10.500 s Latent heat output     0.430E+06 W
FIRE:Time      10.500 s Max latent heat flux   0.462E+03 W/m^2
Timing for main: time 0001-01-01_00:00:10 on domain   1:    0.46679 elapsed seconds
FIRE:Time      11.000 s Average wind           0.102E+01 m/s
FIRE:Time      11.000 s Maximum wind           0.102E+01 m/s
FIRE:Time      11.000 s Fire area              0.379E+02 m^2
FIRE:Time      11.000 s Heat output            0.517E+07 W
FIRE:Time      11.000 s Max heat flux          0.530E+04 W/m^2
FIRE:Time      11.000 s Latent heat output     0.475E+06 W
FIRE:Time      11.000 s Max latent heat flux   0.486E+03 W/m^2
Timing for main: time 0001-01-01_00:00:11 on domain   1:    0.46700 elapsed seconds
FIRE:Time      11.500 s Average wind           0.102E+01 m/s
FIRE:Time      11.500 s Maximum wind           0.102E+01 m/s
FIRE:Time      11.500 s Fire area              0.417E+02 m^2
FIRE:Time      11.500 s Heat output            0.569E+07 W
FIRE:Time      11.500 s Max heat flux          0.557E+04 W/m^2
FIRE:Time      11.500 s Latent heat output     0.522E+06 W
FIRE:Time      11.500 s Max latent heat flux   0.511E+03 W/m^2
Timing for main: time 0001-01-01_00:00:11 on domain   1:    0.46630 elapsed seconds
FIRE:Time      12.000 s Average wind           0.102E+01 m/s
FIRE:Time      12.000 s Maximum wind           0.102E+01 m/s
FIRE:Time      12.000 s Fire area              0.458E+02 m^2
FIRE:Time      12.000 s Heat output            0.620E+07 W
FIRE:Time      12.000 s Max heat flux          0.583E+04 W/m^2
FIRE:Time      12.000 s Latent heat output     0.569E+06 W
FIRE:Time      12.000 s Max latent heat flux   0.535E+03 W/m^2
Timing for main: time 0001-01-01_00:00:12 on domain   1:    0.46577 elapsed seconds
d01 0001-01-01_00:00:12 wrf: SUCCESS COMPLETE WRF
