taskid: 0 hostname: r1i1n28
Quilting with   1 groups of   0 I/O tasks.
 Ntasks in X            1 , ntasks in Y            1
  Domain # 1: dx =   100.000 m
WRF V4.3.3 MODEL
git commit b00c5536bc3f81084780a705c51d5e79e646bd20
 *************************************
 Parent domain
 ids,ide,jds,jde            1          20           1          20
 ims,ime,jms,jme           -4          25          -4          25
 ips,ipe,jps,jpe            1          20           1          20
 *************************************
DYNAMICS OPTION: Eulerian Mass Coordinate
   alloc_space_field: domain            1 ,              36145560  bytes allocated
  med_initialdata_input: calling input_input
   Input data is acceptable to use: wrfinput_d01
 CURRENT DATE          = 2012-06-25_18:00:00
 SIMULATION START DATE = 2012-06-25_18:00:00
Timing for processing wrfinput file (stream 0) for domain        1:    0.09373 elapsed seconds
Max map factor in domain 1 =  1.00. Scale the dt in the model accordingly.
 D01: Time step                              =   0.500000000      (s)
 D01: Grid Distance                          =   0.100000001      (km)
 D01: Grid Distance Ratio dt/dx              =    5.00000000      (s/km)
 D01: Ratio Including Maximum Map Factor     =    5.00000000      (s/km)
 D01: NML defined reasonable_time_step_ratio =    6.00000000
INPUT LandUse = "MODIFIED_IGBP_MODIS_NOAH"
 LANDUSE TYPE = "MODIFIED_IGBP_MODIS_NOAH" FOUND          41  CATEGORIES           2  SEASONS WATER CATEGORY =           17  SNOW CATEGORY =           15
Climatological albedo is used instead of table values
INITIALIZE THREE Noah LSM RELATED TABLES
Skipping over LUTYPE = USGS
 LANDUSE TYPE = MODIFIED_IGBP_MODIS_NOAH FOUND          20  CATEGORIES
 INPUT SOIL TEXTURE CLASSIFICATION = STAS
 SOIL TEXTURE CLASSIFICATION = STAS FOUND          19  CATEGORIES
FIRE:fire_driver_em_init: FIRE initialization start
FIRE:Using real ignition coordinates, longitude and latitude
FIRE:Reading file namelist.fire
FIRE:File namelist.fire not found, using defaults
Timing for Writing wrfout_d01_2012-06-25_18:00:00 for domain        1:    0.19920 elapsed seconds
d01 2012-06-25_18:00:00  Input data is acceptable to use: wrfbdy_d01
Timing for processing lateral boundary for domain        1:    0.06778 elapsed seconds
 Tile Strategy is not specified. Assuming 1D-Y
WRF TILE   1 IS      1 IE     20 JS      1 JE     20
WRF NUMBER OF TILES =   1
FIRE:Time       0.500 s Average wind           0.349E+01 m/s
FIRE:Time       0.500 s Maximum wind           0.361E+01 m/s
FIRE:Time       0.500 s Fire area              0.629E+01 m^2
FIRE:Time       0.500 s Heat output            0.262E+05 W
FIRE:Time       0.500 s Max heat flux          0.418E+02 W/m^2
FIRE:Time       0.500 s Latent heat output     0.240E+04 W
FIRE:Time       0.500 s Max latent heat flux   0.384E+01 W/m^2
d01 2012-06-25_18:00:00  ----------------------------------------
d01 2012-06-25_18:00:00  W-DAMPING  BEGINS AT W-COURANT NUMBER =    1.00000000
d01 2012-06-25_18:00:00  ----------------------------------------
Timing for main: time 2012-06-25_18:00:00 on domain   1:    1.27739 elapsed seconds
FIRE:Time       1.000 s Average wind           0.349E+01 m/s
FIRE:Time       1.000 s Maximum wind           0.361E+01 m/s
FIRE:Time       1.000 s Fire area              0.195E+03 m^2
FIRE:Time       1.000 s Heat output            0.212E+08 W
FIRE:Time       1.000 s Max heat flux          0.336E+05 W/m^2
FIRE:Time       1.000 s Latent heat output     0.194E+07 W
FIRE:Time       1.000 s Max latent heat flux   0.309E+04 W/m^2
Timing for main: time 2012-06-25_18:00:01 on domain   1:    0.26937 elapsed seconds
Timing for Writing wrfout_d01_2012-06-25_18:00:01 for domain        1:    0.09804 elapsed seconds
d01 2012-06-25_18:00:01 wrf: SUCCESS COMPLETE WRF
