taskid: 0 hostname: r1i7n22
Quilting with   1 groups of   0 I/O tasks.
 Ntasks in X            1 , ntasks in Y            1
  Domain # 1: dx =    50.000 m
WRF V4.3.3 MODEL
git commit f10d917d5c98473ea9b33e59f3ee29813454bd01 2 files changed, 137 insertions(+), 2 deletions(-)
 *************************************
 Parent domain
 ids,ide,jds,jde            1         103           1         103
 ims,ime,jms,jme           -4         108          -4         108
 ips,ipe,jps,jpe            1         103           1         103
 *************************************
DYNAMICS OPTION: Eulerian Mass Coordinate
   alloc_space_field: domain            1 ,             359650200  bytes allocated
  med_initialdata_input: calling input_input
   Input data is acceptable to use: wrfinput_d01
 CURRENT DATE          = 0001-01-01_00:00:00
 SIMULATION START DATE = 0001-01-01_00:00:00
Timing for processing wrfinput file (stream 0) for domain        1:    0.40411 elapsed seconds
Max map factor in domain 1 =  0.00. Scale the dt in the model accordingly.
FIRE:fire_driver_em_init: FIRE initialization start
FIRE:Using ideal ignition coordinates, m from the lower left domain corner
FIRE:Reading file namelist.fire
FIRE:Namelist fuel_moisture not found, using defaults
Timing for Writing wrfout_d01_0001-01-01_00:00:00 for domain        1:    0.73915 elapsed seconds
 Tile Strategy is not specified. Assuming 1D-Y
WRF TILE   1 IS      1 IE    103 JS      1 JE    103
WRF NUMBER OF TILES =   1
 itimestep =            1
 ph_2: i, j =          42          42
   0.00000000       13.8204203       26.5920029       38.3797607       49.2364426       59.2161636       68.3687134       76.7347412       84.2828140       91.0704575       97.1466751       102.561920       107.365410       111.603745       115.318642       118.537750       121.365837       123.837875       125.986755       127.842049       129.431870       130.781860       131.915421       132.854492       133.619125       134.227219       134.695877       134.984268       135.150009       135.207733       135.170517       135.050400       134.858658       134.604935       134.298111       133.934662       133.517365       133.069000       132.595490       132.102081       131.593399       131.073563       130.546265       130.014786       129.481873       128.950027       128.421371       127.897804       127.380852       126.871918       126.372375    
 phb: i, j =          42          42
   0.00000000       1707.28320       3361.90430       4964.50537       6515.84424       8016.72852       9467.99121       10870.6191       12225.7480       13534.3027       14797.2246       16015.4951       17190.0977       18322.0605       19412.4102       20462.0918       21471.9375       22443.0254       23376.4375       24273.2539       25134.5645       25961.4453       26754.9785       27516.2227       28246.2402       28946.0723       29616.7441       30259.1211       30874.1660       31462.8828       32026.2500       32565.2148       33080.7070       33573.6367       34044.8750       34495.2852       34925.6172       35336.6758       35729.2500       36104.1055       36461.9805       36803.5859       37129.6133       37440.7266       37737.5625       38020.7383       38290.8477       38548.4609       38794.1250       39028.3711       39251.6992    
 u_2: i, j =          42          42
   3.00000000       3.00000000       3.00000000       3.00000000       3.00000000       2.99999976       3.00000000       3.00000024       3.00000000       3.00000000       3.00000000       3.00000000       3.00000000       3.00000000       3.00000000       3.00000000       3.00000000       3.00000000       3.00000000       3.00000000       3.00000000       3.00000000       3.00000000       3.00000000       3.00000000       3.00000024       3.00000000       3.00000000       3.00000000       3.00000000       3.00000000       3.00000000       3.00000000       3.00000000       3.00000000       3.00000000       3.00000000       3.00000000       3.00000000       3.00000000       3.00000000       3.00000000       3.00000000       3.00000000       3.00000000       3.00000000       3.00000000       3.00000000       3.00000024       3.00000000       0.00000000    
 v_2: i, j =          42          42
   0.00000000       0.00000000       0.00000000       0.00000000       0.00000000       0.00000000       0.00000000       0.00000000       0.00000000       0.00000000       0.00000000       0.00000000       0.00000000       0.00000000       0.00000000       0.00000000       0.00000000       0.00000000       0.00000000       0.00000000       0.00000000       0.00000000       0.00000000       0.00000000       0.00000000       0.00000000       0.00000000       0.00000000       0.00000000       0.00000000       0.00000000       0.00000000       0.00000000       0.00000000       0.00000000       0.00000000       0.00000000       0.00000000       0.00000000       0.00000000       0.00000000       0.00000000       0.00000000       0.00000000       0.00000000       0.00000000       0.00000000       0.00000000       0.00000000       0.00000000       0.00000000    
 rho: i, j =          42          42
   1.20651519       1.18431544       1.16323423       1.14317775       1.12409139       1.10593629       1.08858371       1.07191896       1.05606472       1.04098368       1.02663994       1.01299584       1.00001323      0.987663746      0.976037860      0.965157628      0.954824507      0.945008934      0.935684621      0.926825523      0.918407857      0.910409093      0.902807295      0.895582259      0.888715386      0.882187963      0.876253724      0.870619595      0.865259767      0.860160649      0.855310082      0.850694954      0.846304417      0.842127442      0.838175058      0.834568560      0.831135690      0.827868402      0.824758351      0.821798563      0.818981647      0.816300511      0.813748956      0.811320662      0.809009790      0.806810796      0.804717839      0.802726388      0.800831199      0.799025893       0.00000000    
 z_at_w: i, j =          42          42
   0.00000000       175.443787       345.412445       509.978088       669.223267       823.235901       972.106018       1115.93811       1254.84509       1388.92688       1518.28442       1643.02307       1763.24792       1879.06860       1990.59399       2097.92334       2201.15210       2300.39380       2395.76172       2487.36938       2575.33081       2659.75806       2740.76392       2818.45850       2892.95190       2964.35254       3032.76636       3098.27759       3160.99023       3221.00806       3278.43213       3333.36035       3385.88843       3436.11011       3484.11523       3529.99146       3573.81567       3615.67212       3655.64136       3693.80273       3730.23169       3765.00098       3798.18140       3829.84106       3860.04492       3888.85693       3916.33716       3942.54419       3967.53345       3991.35986       4014.07422    
 dz8w: i, j =          42          42
   175.443787       169.968658       164.565643       159.245178       154.012634       148.870117       143.832092       138.906982       134.081787       129.357544       124.738647       120.224854       115.820679       111.525391       107.329346       103.228760       99.2416992       95.3679199       91.6076660       87.9614258       84.4272461       81.0058594       77.6945801       74.4934082       71.4006348       68.4138184       65.5112305       62.7126465       60.0178223       57.4240723       54.9282227       52.5280762       50.2216797       48.0051270       45.8762207       43.8242188       41.8564453       39.9692383       38.1613770       36.4289551       34.7692871       33.1804199       31.6596680       30.2038574       28.8120117       27.4802246       26.2070312       24.9892578       23.8264160       22.7143555       0.00000000    
 z0: i, j =          42          42
  0.100000001    
 ht: i, j =          42          42
   0.00000000    
 xlat: i, j =          42          42
   2075.00000    
 xlong: i, j =          42          42
   2075.00000    
 rainc: i, j =          42          42
   0.00000000    
 rainnc: i, j =          42          42
   0.00000000    
 t2: i, j =          42          42
   289.555695    
 q2: i, j =          42          42
   9.30551067E-03
 psfc: i, j =          42          42
   101694.555    
 mut: i, j =          42          42
   38739.3828    
 zsf: i, j =          42          42
   0.00000000    
 dzdxf: i, j =          42          42
   0.00000000    
 dzdyf: i, j =          42          42
   0.00000000    
 fxlat: i, j =          42          42
   518.750000    
 fxlong: i, j =          42          42
   518.750000    
 fz0: i, j =          42          42
  0.100000001    
 c1h: =
   1.00000000       1.00000000       1.00000000       1.00000000       1.00000000       1.00000000       1.00000000       1.00000000       1.00000000       1.00000000       1.00000000       1.00000000       1.00000000       1.00000000       1.00000000       1.00000000       1.00000000       1.00000000       1.00000000       1.00000000       1.00000000       1.00000000       1.00000000       1.00000000       1.00000000       1.00000000       1.00000000       1.00000000       1.00000000       1.00000000       1.00000000       1.00000000       1.00000000       1.00000000       1.00000000       1.00000000       1.00000000       1.00000000       1.00000000       1.00000000       1.00000000       1.00000000       1.00000000       1.00000000       1.00000000       1.00000000       1.00000000       1.00000000       1.00000000       1.00000000       0.00000000    
 c2h: =
   0.00000000       0.00000000       0.00000000       0.00000000       0.00000000       0.00000000       0.00000000       0.00000000       0.00000000       0.00000000       0.00000000       0.00000000       0.00000000       0.00000000       0.00000000       0.00000000       0.00000000       0.00000000       0.00000000       0.00000000       0.00000000       0.00000000       0.00000000       0.00000000       0.00000000       0.00000000       0.00000000       0.00000000       0.00000000       0.00000000       0.00000000       0.00000000       0.00000000       0.00000000       0.00000000       0.00000000       0.00000000       0.00000000       0.00000000       0.00000000       0.00000000       0.00000000       0.00000000       0.00000000       0.00000000       0.00000000       0.00000000       0.00000000       0.00000000       0.00000000       0.00000000    
 dx: =    50.0000000    
 dy: =    50.0000000    
FIRE:Time       0.500 s Average wind           0.102E+01 m/s
FIRE:Time       0.500 s Maximum wind           0.102E+01 m/s
FIRE:Time       0.500 s Fire area              0.156E+02 m^2
FIRE:Time       0.500 s Heat output            0.116E+07 W
FIRE:Time       0.500 s Max heat flux          0.272E+04 W/m^2
FIRE:Time       0.500 s Latent heat output     0.106E+06 W
FIRE:Time       0.500 s Max latent heat flux   0.250E+03 W/m^2
d01 0001-01-01_00:00:00  ----------------------------------------
d01 0001-01-01_00:00:00  W-DAMPING  BEGINS AT W-COURANT NUMBER =    1.00000000
d01 0001-01-01_00:00:00  ----------------------------------------
Timing for main: time 0001-01-01_00:00:00 on domain   1:    5.92089 elapsed seconds
 itimestep =            2
 ph_2: i, j =          42          42
   0.00000000       13.8203039       26.5917721       38.3795509       49.2364006       59.2159996       68.3686829       76.7346802       84.2828369       91.0705261       97.1465225       102.561752       107.365456       111.603722       115.318695       118.537827       121.365799       123.837944       125.986633       127.842133       129.431915       130.781891       131.915344       132.854355       133.618988       134.227051       134.695740       134.984238       135.149963       135.207642       135.170334       135.050232       134.858536       134.604843       134.298050       133.934601       133.517319       133.068939       132.595459       132.102051       131.593399       131.073593       130.546280       130.014832       129.481873       128.950027       128.421387       127.897804       127.380829       126.871933       126.372406    
 phb: i, j =          42          42
   0.00000000       1707.28320       3361.90430       4964.50537       6515.84424       8016.72852       9467.99121       10870.6191       12225.7480       13534.3027       14797.2246       16015.4951       17190.0977       18322.0605       19412.4102       20462.0918       21471.9375       22443.0254       23376.4375       24273.2539       25134.5645       25961.4453       26754.9785       27516.2227       28246.2402       28946.0723       29616.7441       30259.1211       30874.1660       31462.8828       32026.2500       32565.2148       33080.7070       33573.6367       34044.8750       34495.2852       34925.6172       35336.6758       35729.2500       36104.1055       36461.9805       36803.5859       37129.6133       37440.7266       37737.5625       38020.7383       38290.8477       38548.4609       38794.1250       39028.3711       39251.6992    
 u_2: i, j =          42          42
   3.00002265       2.99996662       2.99999976       3.00000691       3.00000548       2.99999690       2.99999666       3.00000215       3.00000167       3.00000167       2.99999809       3.00000215       3.00000024       2.99999809       3.00000358       2.99999976       3.00000262       3.00000072       3.00000072       3.00000024       2.99999857       2.99999928       3.00000644       3.00000262       2.99999475       3.00000072       2.99999809       3.00000191       2.99999881       2.99999928       3.00000143       3.00000191       3.00000024       3.00000048       2.99999785       2.99999976       2.99999690       3.00000072       3.00000525       2.99999022       3.00000477       3.00000453       2.99999928       2.99999714       3.00000095       3.00000620       3.00000453       3.00000191       3.00000191       3.00000715       0.00000000    
 v_2: i, j =          42          42
   3.44594082E-05  -3.22312699E-05   1.15303135E-06   4.07003563E-06   6.15754698E-06  -1.16041053E-06  -3.63193749E-06   1.70401972E-06   1.33459605E-06   1.23446171E-06  -1.22873541E-06   1.26432747E-06  -5.21488460E-07  -1.57243323E-06   3.40487486E-06  -9.27766223E-07   2.74412901E-06   5.58543093E-07   1.09104076E-06  -2.75533944E-06  -4.49057978E-07   1.31435754E-05  -1.16750016E-05   1.16656101E-05  -3.46660795E-06  -6.08463142E-06   1.78343430E-06  -1.85085952E-07   2.65725561E-07  -1.22314793E-06  -2.00081990E-06  -9.25512268E-07   7.54638222E-07  -2.36753999E-06   1.85017882E-06  -4.29642478E-06  -2.23773895E-06  -3.09152227E-07   7.44565750E-06   3.91331241E-06   2.26648149E-06  -1.21301503E-06  -4.71190833E-06  -3.75529021E-06   1.35570565E-06   6.61328977E-06   4.73944010E-06   1.64158985E-06   1.49012601E-06   6.89855915E-06   0.00000000    
 rho: i, j =          42          42
   1.20651519       1.18431544       1.16323423       1.14317763       1.12409139       1.10593629       1.08858371       1.07191885       1.05606472       1.04098380       1.02663994       1.01299560       1.00001335      0.987663746      0.976037860      0.965157747      0.954824448      0.945009112      0.935684383      0.926825583      0.918407857      0.910409212      0.902807415      0.895582259      0.888715506      0.882187963      0.876253664      0.870619595      0.865259886      0.860160828      0.855310082      0.850694835      0.846304417      0.842127442      0.838175058      0.834568560      0.831135750      0.827868283      0.824758351      0.821798503      0.818981588      0.816300571      0.813748896      0.811320841      0.809009790      0.806810796      0.804717898      0.802726448      0.800831020      0.799025893       0.00000000    
 z_at_w: i, j =          42          42
   0.00000000       175.443771       345.412445       509.978027       669.223267       823.235901       972.106018       1115.93811       1254.84509       1388.92688       1518.28442       1643.02307       1763.24792       1879.06860       1990.59399       2097.92334       2201.15210       2300.39380       2395.76172       2487.36938       2575.33081       2659.75806       2740.76392       2818.45825       2892.95190       2964.35254       3032.76636       3098.27759       3160.99023       3221.00806       3278.43213       3333.36035       3385.88843       3436.11011       3484.11523       3529.99146       3573.81567       3615.67212       3655.64136       3693.80273       3730.23169       3765.00098       3798.18140       3829.84106       3860.04492       3888.85693       3916.33716       3942.54419       3967.53345       3991.35986       4014.07422    
 dz8w: i, j =          42          42
   175.443771       169.968674       164.565582       159.245239       154.012634       148.870117       143.832092       138.906982       134.081787       129.357544       124.738647       120.224854       115.820679       111.525391       107.329346       103.228760       99.2416992       95.3679199       91.6076660       87.9614258       84.4272461       81.0058594       77.6943359       74.4936523       71.4006348       68.4138184       65.5112305       62.7126465       60.0178223       57.4240723       54.9282227       52.5280762       50.2216797       48.0051270       45.8762207       43.8242188       41.8564453       39.9692383       38.1613770       36.4289551       34.7692871       33.1804199       31.6596680       30.2038574       28.8120117       27.4802246       26.2070312       24.9892578       23.8264160       22.7143555       0.00000000    
 z0: i, j =          42          42
  0.100000001    
 ht: i, j =          42          42
   0.00000000    
 xlat: i, j =          42          42
   2075.00000    
 xlong: i, j =          42          42
   2075.00000    
 rainc: i, j =          42          42
   0.00000000    
 rainnc: i, j =          42          42
   0.00000000    
 t2: i, j =          42          42
   289.555695    
 q2: i, j =          42          42
   9.30551626E-03
 psfc: i, j =          42          42
   101694.555    
 mut: i, j =          42          42
   38739.3828    
 zsf: i, j =          42          42
   0.00000000    
 dzdxf: i, j =          42          42
   0.00000000    
 dzdyf: i, j =          42          42
   0.00000000    
 fxlat: i, j =          42          42
   518.750000    
 fxlong: i, j =          42          42
   518.750000    
 fz0: i, j =          42          42
  0.100000001    
 c1h: =
   1.00000000       1.00000000       1.00000000       1.00000000       1.00000000       1.00000000       1.00000000       1.00000000       1.00000000       1.00000000       1.00000000       1.00000000       1.00000000       1.00000000       1.00000000       1.00000000       1.00000000       1.00000000       1.00000000       1.00000000       1.00000000       1.00000000       1.00000000       1.00000000       1.00000000       1.00000000       1.00000000       1.00000000       1.00000000       1.00000000       1.00000000       1.00000000       1.00000000       1.00000000       1.00000000       1.00000000       1.00000000       1.00000000       1.00000000       1.00000000       1.00000000       1.00000000       1.00000000       1.00000000       1.00000000       1.00000000       1.00000000       1.00000000       1.00000000       1.00000000       0.00000000    
 c2h: =
   0.00000000       0.00000000       0.00000000       0.00000000       0.00000000       0.00000000       0.00000000       0.00000000       0.00000000       0.00000000       0.00000000       0.00000000       0.00000000       0.00000000       0.00000000       0.00000000       0.00000000       0.00000000       0.00000000       0.00000000       0.00000000       0.00000000       0.00000000       0.00000000       0.00000000       0.00000000       0.00000000       0.00000000       0.00000000       0.00000000       0.00000000       0.00000000       0.00000000       0.00000000       0.00000000       0.00000000       0.00000000       0.00000000       0.00000000       0.00000000       0.00000000       0.00000000       0.00000000       0.00000000       0.00000000       0.00000000       0.00000000       0.00000000       0.00000000       0.00000000       0.00000000    
 dx: =    50.0000000    
 dy: =    50.0000000    
FIRE:Time       1.000 s Average wind           0.102E+01 m/s
FIRE:Time       1.000 s Maximum wind           0.102E+01 m/s
FIRE:Time       1.000 s Fire area              0.363E+02 m^2
FIRE:Time       1.000 s Heat output            0.383E+07 W
FIRE:Time       1.000 s Max heat flux          0.599E+04 W/m^2
FIRE:Time       1.000 s Latent heat output     0.351E+06 W
FIRE:Time       1.000 s Max latent heat flux   0.549E+03 W/m^2
Timing for main: time 0001-01-01_00:00:01 on domain   1:    1.82193 elapsed seconds
Timing for Writing wrfout_d01_0001-01-01_00:00:01 for domain        1:    0.84632 elapsed seconds
 itimestep =            3
 ph_2: i, j =          42          42
   0.00000000       13.8242931       26.5953503       38.3832359       49.2399330       59.2193146       68.3719330       76.7377930       84.2858429       91.0732117       97.1489716       102.564064       107.367516       111.605888       115.320755       118.539764       121.367683       123.839684       125.988541       127.843727       129.433456       130.783279       131.916779       132.855896       133.620514       134.228638       134.697250       134.985596       135.151184       135.208847       135.171432       135.051254       134.859421       134.605545       134.298630       133.935120       133.517807       133.069427       132.595886       132.102386       131.593658       131.073853       130.546509       130.015030       129.482132       128.950241       128.421539       127.897926       127.380928       126.871971       126.372391    
 phb: i, j =          42          42
   0.00000000       1707.28320       3361.90430       4964.50537       6515.84424       8016.72852       9467.99121       10870.6191       12225.7480       13534.3027       14797.2246       16015.4951       17190.0977       18322.0605       19412.4102       20462.0918       21471.9375       22443.0254       23376.4375       24273.2539       25134.5645       25961.4453       26754.9785       27516.2227       28246.2402       28946.0723       29616.7441       30259.1211       30874.1660       31462.8828       32026.2500       32565.2148       33080.7070       33573.6367       34044.8750       34495.2852       34925.6172       35336.6758       35729.2500       36104.1055       36461.9805       36803.5859       37129.6133       37440.7266       37737.5625       38020.7383       38290.8477       38548.4609       38794.1250       39028.3711       39251.6992    
 u_2: i, j =          42          42
   2.99995613       3.00000238       2.99992895       3.00007653       2.99998212       3.00000358       2.99999690       3.00000668       3.00000358       2.99999809       3.00000191       3.00000143       2.99999261       3.00000954       3.00000072       3.00000119       3.00000238       3.00000477       2.99999404       2.99999237       3.00001240       2.99999785       2.99998856       3.00001121       2.99998975       3.00001168       3.00000381       3.00000453       2.99999070       2.99999237       2.99999642       2.99999523       3.00000525       3.00002408       3.00000501       3.00002337       2.99999285       3.00000739       3.00000954       3.00000381       2.99999332       2.99999881       3.00000238       3.00000072       2.99999309       2.99999070       2.99999785       2.99999881       2.99999523       2.99999332       0.00000000    
 v_2: i, j =          42          42
   7.64002380E-06  -2.04056710E-06  -7.57814341E-05   7.88408433E-05  -1.67044182E-05   5.92138349E-06  -7.15499755E-06   1.50569213E-05  -1.99669148E-06  -5.54537883E-06  -3.83081397E-06   9.23193329E-06  -4.83290705E-06   1.06924981E-05  -5.23280687E-06  -5.74440151E-07  -7.12387236E-06   2.78674565E-06  -4.43208546E-06  -7.85404427E-06   1.41431747E-05  -2.41515809E-05   1.34868642E-05  -1.17705385E-05  -9.43117084E-06   1.21515432E-05   1.17147811E-05  -1.14323507E-06  -8.39406039E-06  -9.66735024E-06  -1.50139840E-06  -3.35197274E-06   2.72576153E-06   3.87170712E-06   1.99222795E-05   6.39765540E-06  -5.38384211E-06  -2.81235748E-06   1.37257157E-05  -6.59098851E-06   3.71429905E-06   5.98524412E-06   5.40362362E-06   3.01646264E-06  -3.33767275E-06  -5.70925295E-06   4.30549335E-06   1.87186299E-06  -6.83434746E-06  -3.94957260E-06   0.00000000    
 rho: i, j =          42          42
   1.20651233       1.18431568       1.16323400       1.14317751       1.12409139       1.10593617       1.08858371       1.07191885       1.05606484       1.04098392       1.02663994       1.01299572       1.00001311      0.987663627      0.976037860      0.965157747      0.954824448      0.945008814      0.935684621      0.926825523      0.918407977      0.910409093      0.902807117      0.895582139      0.888715327      0.882187963      0.876253724      0.870619714      0.865259767      0.860160828      0.855310082      0.850695014      0.846304536      0.842127502      0.838175058      0.834568441      0.831135571      0.827868402      0.824758470      0.821798563      0.818981469      0.816300511      0.813748896      0.811320603      0.809009850      0.806810856      0.804717898      0.802726448      0.800831199      0.799025953       0.00000000    
 z_at_w: i, j =          42          42
   0.00000000       175.444183       345.412811       509.978424       669.223633       823.236206       972.106323       1115.93848       1254.84546       1388.92712       1518.28479       1643.02332       1763.24817       1879.06885       1990.59424       2097.92358       2201.15234       2300.39380       2395.76196       2487.36963       2575.33105       2659.75806       2740.76392       2818.45850       2892.95215       2964.35254       3032.76660       3098.27783       3160.99023       3221.00830       3278.43237       3333.36035       3385.88843       3436.11011       3484.11523       3529.99146       3573.81592       3615.67212       3655.64185       3693.80273       3730.23169       3765.00098       3798.18140       3829.84106       3860.04492       3888.85693       3916.33716       3942.54419       3967.53369       3991.35986       4014.07422    
 dz8w: i, j =          42          42
   175.444183       169.968628       164.565613       159.245209       154.012573       148.870117       143.832153       138.906982       134.081665       129.357666       124.738525       120.224854       115.820679       111.525391       107.329346       103.228760       99.2414551       95.3681641       91.6076660       87.9614258       84.4270020       81.0058594       77.6945801       74.4936523       71.4003906       68.4140625       65.5112305       62.7124023       60.0180664       57.4240723       54.9279785       52.5280762       50.2216797       48.0051270       45.8762207       43.8244629       41.8562012       39.9697266       38.1608887       36.4289551       34.7692871       33.1804199       31.6596680       30.2038574       28.8120117       27.4802246       26.2070312       24.9895020       23.8261719       22.7143555       0.00000000    
 z0: i, j =          42          42
  0.100000001    
 ht: i, j =          42          42
   0.00000000    
 xlat: i, j =          42          42
   2075.00000    
 xlong: i, j =          42          42
   2075.00000    
 rainc: i, j =          42          42
   0.00000000    
 rainnc: i, j =          42          42
   0.00000000    
 t2: i, j =          42          42
   289.555664    
 q2: i, j =          42          42
   9.30554513E-03
 psfc: i, j =          42          42
   101694.547    
 mut: i, j =          42          42
   38739.3789    
 zsf: i, j =          42          42
   0.00000000    
 dzdxf: i, j =          42          42
   0.00000000    
 dzdyf: i, j =          42          42
   0.00000000    
 fxlat: i, j =          42          42
   518.750000    
 fxlong: i, j =          42          42
   518.750000    
 fz0: i, j =          42          42
  0.100000001    
 c1h: =
   1.00000000       1.00000000       1.00000000       1.00000000       1.00000000       1.00000000       1.00000000       1.00000000       1.00000000       1.00000000       1.00000000       1.00000000       1.00000000       1.00000000       1.00000000       1.00000000       1.00000000       1.00000000       1.00000000       1.00000000       1.00000000       1.00000000       1.00000000       1.00000000       1.00000000       1.00000000       1.00000000       1.00000000       1.00000000       1.00000000       1.00000000       1.00000000       1.00000000       1.00000000       1.00000000       1.00000000       1.00000000       1.00000000       1.00000000       1.00000000       1.00000000       1.00000000       1.00000000       1.00000000       1.00000000       1.00000000       1.00000000       1.00000000       1.00000000       1.00000000       0.00000000    
 c2h: =
   0.00000000       0.00000000       0.00000000       0.00000000       0.00000000       0.00000000       0.00000000       0.00000000       0.00000000       0.00000000       0.00000000       0.00000000       0.00000000       0.00000000       0.00000000       0.00000000       0.00000000       0.00000000       0.00000000       0.00000000       0.00000000       0.00000000       0.00000000       0.00000000       0.00000000       0.00000000       0.00000000       0.00000000       0.00000000       0.00000000       0.00000000       0.00000000       0.00000000       0.00000000       0.00000000       0.00000000       0.00000000       0.00000000       0.00000000       0.00000000       0.00000000       0.00000000       0.00000000       0.00000000       0.00000000       0.00000000       0.00000000       0.00000000       0.00000000       0.00000000       0.00000000    
 dx: =    50.0000000    
 dy: =    50.0000000    
FIRE:Time       1.500 s Average wind           0.102E+01 m/s
FIRE:Time       1.500 s Maximum wind           0.102E+01 m/s
FIRE:Time       1.500 s Fire area              0.665E+02 m^2
FIRE:Time       1.500 s Heat output            0.806E+07 W
FIRE:Time       1.500 s Max heat flux          0.958E+04 W/m^2
FIRE:Time       1.500 s Latent heat output     0.740E+06 W
FIRE:Time       1.500 s Max latent heat flux   0.879E+03 W/m^2
Timing for main: time 0001-01-01_00:00:01 on domain   1:    2.49801 elapsed seconds
 itimestep =            4
 ph_2: i, j =          42          42
   0.00000000       13.8368464       26.6082344       38.3952713       49.2516518       59.2308197       68.3829269       76.7486420       84.2961960       91.0830078       97.1585999       102.573280       107.376312       111.614243       115.328865       118.547569       121.375114       123.846710       125.994980       127.849815       129.439224       130.788742       131.921890       132.860641       133.624878       134.232727       134.701111       134.989258       135.154678       135.212158       135.174408       135.053970       134.861923       134.607880       134.300827       133.937088       133.519516       133.070984       132.597260       132.103638       131.594788       131.074905       130.547455       130.015808       129.482742       128.950729       128.421921       127.898201       127.381134       126.872139       126.372482    
 phb: i, j =          42          42
   0.00000000       1707.28320       3361.90430       4964.50537       6515.84424       8016.72852       9467.99121       10870.6191       12225.7480       13534.3027       14797.2246       16015.4951       17190.0977       18322.0605       19412.4102       20462.0918       21471.9375       22443.0254       23376.4375       24273.2539       25134.5645       25961.4453       26754.9785       27516.2227       28246.2402       28946.0723       29616.7441       30259.1211       30874.1660       31462.8828       32026.2500       32565.2148       33080.7070       33573.6367       34044.8750       34495.2852       34925.6172       35336.6758       35729.2500       36104.1055       36461.9805       36803.5859       37129.6133       37440.7266       37737.5625       38020.7383       38290.8477       38548.4609       38794.1250       39028.3711       39251.6992    
 u_2: i, j =          42          42
   2.99978328       3.00011325       2.99985766       3.00005388       3.00003767       2.99994850       2.99999285       3.00002360       2.99999523       3.00000477       3.00000763       2.99997807       3.00002646       2.99998474       2.99999070       3.00000882       3.00000453       3.00000477       2.99999690       3.00002551       2.99998116       3.00000429       3.00001836       2.99997830       3.00001574       2.99998617       2.99999666       2.99998379       3.00001097       3.00001907       3.00002599       3.00001121       2.99999571       2.99998212       3.00000381       2.99999833       2.99999404       3.00000739       3.00001383       3.00000167       2.99999619       2.99998641       3.00000143       3.00000715       3.00000691       2.99999499       2.99998927       3.00000286       3.00000858       3.00000739       0.00000000    
 v_2: i, j =          42          42
  -1.22370082E-04   1.12266549E-04  -1.36220624E-04   5.39718385E-05   2.72686102E-05  -6.77829594E-05  -2.17559341E-06   2.85914793E-05  -7.01274666E-06   2.90109165E-06   1.04787323E-05  -9.79795368E-06   2.17482193E-05  -1.83167285E-05   8.34662569E-06  -5.61940897E-06   8.61577610E-06  -3.90965897E-06  -5.42007865E-06   4.34741160E-05  -1.81652940E-05   2.21678274E-05   2.14352713E-05  -1.33302956E-05   1.16921119E-05  -1.48325998E-05  -9.67451524E-06  -5.05474372E-06   9.42044517E-06   1.85315530E-05   2.44252860E-05   6.42756231E-06   8.16312252E-07  -2.80051754E-05   1.08079330E-05  -4.40702706E-06   7.47664274E-07   4.20155857E-06  -1.93504875E-05  -4.13591397E-06   2.34559479E-06  -5.82119412E-07   1.02132681E-05   2.17841966E-06  -3.27213570E-06  -8.90956471E-06  -9.49482364E-06   5.22241953E-06   1.25225088E-05   8.86954149E-06   0.00000000    
 rho: i, j =          42          42
   1.20650315       1.18431497       1.16323411       1.14317727       1.12409103       1.10593605       1.08858335       1.07191885       1.05606484       1.04098356       1.02663994       1.01299572       1.00001311      0.987663507      0.976037741      0.965157628      0.954824448      0.945008993      0.935684621      0.926825523      0.918407857      0.910409093      0.902807176      0.895582259      0.888715208      0.882187843      0.876253664      0.870619595      0.865259707      0.860161006      0.855310142      0.850695014      0.846304476      0.842127442      0.838175178      0.834568620      0.831135571      0.827868402      0.824758351      0.821798503      0.818981349      0.816300452      0.813748956      0.811320662      0.809009850      0.806810796      0.804717898      0.802726269      0.800830960      0.799025893       0.00000000    
 z_at_w: i, j =          42          42
   0.00000000       175.445450       345.414093       509.979675       669.224792       823.237427       972.107422       1115.93958       1254.84644       1388.92810       1518.28564       1643.02417       1763.24915       1879.06958       1990.59509       2097.92432       2201.15308       2300.39478       2395.76245       2487.37036       2575.33154       2659.75879       2740.76440       2818.45898       2892.95239       2964.35303       3032.76709       3098.27808       3160.99072       3221.00854       3278.43237       3333.36060       3385.88867       3436.11060       3484.11572       3529.99194       3573.81592       3615.67212       3655.64185       3693.80322       3730.23169       3765.00098       3798.18140       3829.84106       3860.04541       3888.85693       3916.33716       3942.54419       3967.53369       3991.35986       4014.07422    
 dz8w: i, j =          42          42
   175.445450       169.968643       164.565582       159.245117       154.012634       148.869995       143.832153       138.906860       134.081665       129.357544       124.738525       120.224976       115.820435       111.525513       107.329224       103.228760       99.2416992       95.3676758       91.6079102       87.9611816       84.4272461       81.0056152       77.6945801       74.4934082       71.4006348       68.4140625       65.5109863       62.7126465       60.0178223       57.4238281       54.9282227       52.5280762       50.2219238       48.0051270       45.8762207       43.8239746       41.8562012       39.9697266       38.1613770       36.4284668       34.7692871       33.1804199       31.6596680       30.2043457       28.8115234       27.4802246       26.2070312       24.9895020       23.8261719       22.7143555       0.00000000    
 z0: i, j =          42          42
  0.100000001    
 ht: i, j =          42          42
   0.00000000    
 xlat: i, j =          42          42
   2075.00000    
 xlong: i, j =          42          42
   2075.00000    
 rainc: i, j =          42          42
   0.00000000    
 rainnc: i, j =          42          42
   0.00000000    
 t2: i, j =          42          42
   289.555573    
 q2: i, j =          42          42
   9.30563826E-03
 psfc: i, j =          42          42
   101694.539    
 mut: i, j =          42          42
   38739.3633    
 zsf: i, j =          42          42
   0.00000000    
 dzdxf: i, j =          42          42
   0.00000000    
 dzdyf: i, j =          42          42
   0.00000000    
 fxlat: i, j =          42          42
   518.750000    
 fxlong: i, j =          42          42
   518.750000    
 fz0: i, j =          42          42
  0.100000001    
 c1h: =
   1.00000000       1.00000000       1.00000000       1.00000000       1.00000000       1.00000000       1.00000000       1.00000000       1.00000000       1.00000000       1.00000000       1.00000000       1.00000000       1.00000000       1.00000000       1.00000000       1.00000000       1.00000000       1.00000000       1.00000000       1.00000000       1.00000000       1.00000000       1.00000000       1.00000000       1.00000000       1.00000000       1.00000000       1.00000000       1.00000000       1.00000000       1.00000000       1.00000000       1.00000000       1.00000000       1.00000000       1.00000000       1.00000000       1.00000000       1.00000000       1.00000000       1.00000000       1.00000000       1.00000000       1.00000000       1.00000000       1.00000000       1.00000000       1.00000000       1.00000000       0.00000000    
 c2h: =
   0.00000000       0.00000000       0.00000000       0.00000000       0.00000000       0.00000000       0.00000000       0.00000000       0.00000000       0.00000000       0.00000000       0.00000000       0.00000000       0.00000000       0.00000000       0.00000000       0.00000000       0.00000000       0.00000000       0.00000000       0.00000000       0.00000000       0.00000000       0.00000000       0.00000000       0.00000000       0.00000000       0.00000000       0.00000000       0.00000000       0.00000000       0.00000000       0.00000000       0.00000000       0.00000000       0.00000000       0.00000000       0.00000000       0.00000000       0.00000000       0.00000000       0.00000000       0.00000000       0.00000000       0.00000000       0.00000000       0.00000000       0.00000000       0.00000000       0.00000000       0.00000000    
 dx: =    50.0000000    
 dy: =    50.0000000    
FIRE:Time       2.000 s Average wind           0.102E+01 m/s
FIRE:Time       2.000 s Maximum wind           0.102E+01 m/s
FIRE:Time       2.000 s Fire area              0.107E+03 m^2
FIRE:Time       2.000 s Heat output            0.140E+08 W
FIRE:Time       2.000 s Max heat flux          0.136E+05 W/m^2
FIRE:Time       2.000 s Latent heat output     0.129E+07 W
FIRE:Time       2.000 s Max latent heat flux   0.125E+04 W/m^2
Timing for main: time 0001-01-01_00:00:02 on domain   1:    1.40012 elapsed seconds
Timing for Writing wrfout_d01_0001-01-01_00:00:02 for domain        1:    1.06009 elapsed seconds
 itimestep =            5
 ph_2: i, j =          42          42
   0.00000000       13.8610868       26.6323318       38.4189911       49.2745934       59.2527924       68.4040146       76.7686310       84.3153763       91.1016617       97.1760178       102.589920       107.392067       111.629128       115.342926       118.561028       121.388023       123.858925       126.006668       127.861130       129.449966       130.799057       131.931717       132.869904       133.633698       134.241013       134.708801       134.996384       135.161270       135.218292       135.180206       135.059433       134.866989       134.612564       134.305176       133.941086       133.523224       133.074341       132.600327       132.106384       131.597244       131.076920       130.549179       130.017319       129.484024       128.951797       128.422775       127.898865       127.381607       126.872429       126.372574    
 phb: i, j =          42          42
   0.00000000       1707.28320       3361.90430       4964.50537       6515.84424       8016.72852       9467.99121       10870.6191       12225.7480       13534.3027       14797.2246       16015.4951       17190.0977       18322.0605       19412.4102       20462.0918       21471.9375       22443.0254       23376.4375       24273.2539       25134.5645       25961.4453       26754.9785       27516.2227       28246.2402       28946.0723       29616.7441       30259.1211       30874.1660       31462.8828       32026.2500       32565.2148       33080.7070       33573.6367       34044.8750       34495.2852       34925.6172       35336.6758       35729.2500       36104.1055       36461.9805       36803.5859       37129.6133       37440.7266       37737.5625       38020.7383       38290.8477       38548.4609       38794.1250       39028.3711       39251.6992    
 u_2: i, j =          42          42
   2.99950457       3.00021935       2.99978924       3.00015402       2.99994397       3.00010538       2.99991751       3.00003886       2.99998736       2.99999928       2.99999022       3.00001359       2.99994445       3.00001788       3.00000191       2.99998760       2.99998927       2.99999237       3.00001001       2.99997234       3.00001431       3.00000143       3.00001550       2.99998283       3.00000715       2.99998903       3.00001121       2.99998784       3.00000811       2.99998069       2.99997520       2.99997258       2.99998069       2.99998879       2.99997568       2.99997711       3.00001144       2.99999666       2.99997973       3.00000501       3.00001740       3.00001407       3.00000215       3.00000763       3.00000453       3.00001264       3.00001550       3.00000405       2.99998879       3.00001669       0.00000000    
 v_2: i, j =          42          42
  -4.26461193E-04   2.04465337E-04  -2.04198237E-04   1.52655455E-04  -5.33860257E-05   1.24024067E-04  -8.80165462E-05   1.40958527E-05  -2.99413387E-06   1.88196482E-05   8.28401699E-06  -4.90316916E-06  -2.45721858E-05   3.70461348E-05  -2.99445546E-05   1.37487450E-05  -7.93827166E-06  -7.40474934E-06   2.86713857E-05  -1.94169861E-05   5.12454653E-06   1.38064916E-05   5.19696073E-07   4.88221394E-06   1.77802121E-05   2.61130890E-06  -2.55413852E-06  -1.20287386E-05   8.79172512E-06  -1.79009567E-05  -2.19337908E-05  -2.68221793E-05   1.82366784E-06  -2.59927128E-06  -9.71234476E-06  -2.55570353E-06   3.13349233E-06   5.79854350E-06  -3.72500313E-06  -4.34236972E-06   2.32642305E-05   1.21921876E-05  -4.16414241E-06  -2.27694454E-06   1.04369255E-05   1.62104097E-05   2.97558131E-06  -1.93008100E-06  -6.73267823E-06   1.31766610E-05   0.00000000    
 rho: i, j =          42          42
   1.20648527       1.18431413       1.16323352       1.14317691       1.12409079       1.10593593       1.08858335       1.07191861       1.05606437       1.04098380       1.02663970       1.01299560       1.00001299      0.987663388      0.976037562      0.965157449      0.954824448      0.945008814      0.935684204      0.926825285      0.918407679      0.910408914      0.902807176      0.895582080      0.888715208      0.882187963      0.876253664      0.870619714      0.865259707      0.860160828      0.855310023      0.850694954      0.846304476      0.842127323      0.838175178      0.834568560      0.831135690      0.827868402      0.824758470      0.821798563      0.818981707      0.816300511      0.813748896      0.811320662      0.809009790      0.806810796      0.804717839      0.802726269      0.800830960      0.799025953       0.00000000    
 z_at_w: i, j =          42          42
   0.00000000       175.447937       345.416565       509.982056       669.227173       823.239685       972.109619       1115.94165       1254.84839       1388.93005       1518.28748       1643.02588       1763.25073       1879.07117       1990.59668       2097.92578       2201.15454       2300.39600       2395.76367       2487.37158       2575.33252       2659.75977       2740.76538       2818.45972       2892.95337       2964.35376       3032.76782       3098.27881       3160.99146       3221.00928       3278.43311       3333.36108       3385.88916       3436.11108       3484.11597       3529.99243       3573.81641       3615.67261       3655.64209       3693.80322       3730.23218       3765.00122       3798.18164       3829.84106       3860.04541       3888.85718       3916.33716       3942.54419       3967.53369       3991.35986       4014.07422    
 dz8w: i, j =          42          42
   175.447937       169.968628       164.565491       159.245117       154.012512       148.869934       143.832031       138.906738       134.081665       129.357422       124.738403       120.224854       115.820435       111.525513       107.329102       103.228760       99.2414551       95.3676758       91.6079102       87.9609375       84.4272461       81.0056152       77.6943359       74.4936523       71.4003906       68.4140625       65.5109863       62.7126465       60.0178223       57.4238281       54.9279785       52.5280762       50.2219238       48.0048828       45.8764648       43.8239746       41.8562012       39.9694824       38.1611328       36.4289551       34.7690430       33.1804199       31.6594238       30.2043457       28.8117676       27.4799805       26.2070312       24.9895020       23.8261719       22.7143555       0.00000000    
 z0: i, j =          42          42
  0.100000001    
 ht: i, j =          42          42
   0.00000000    
 xlat: i, j =          42          42
   2075.00000    
 xlong: i, j =          42          42
   2075.00000    
 rainc: i, j =          42          42
   0.00000000    
 rainnc: i, j =          42          42
   0.00000000    
 t2: i, j =          42          42
   289.555328    
 q2: i, j =          42          42
   9.30580497E-03
 psfc: i, j =          42          42
   101694.516    
 mut: i, j =          42          42
   38739.3320    
 zsf: i, j =          42          42
   0.00000000    
 dzdxf: i, j =          42          42
   0.00000000    
 dzdyf: i, j =          42          42
   0.00000000    
 fxlat: i, j =          42          42
   518.750000    
 fxlong: i, j =          42          42
   518.750000    
 fz0: i, j =          42          42
  0.100000001    
 c1h: =
   1.00000000       1.00000000       1.00000000       1.00000000       1.00000000       1.00000000       1.00000000       1.00000000       1.00000000       1.00000000       1.00000000       1.00000000       1.00000000       1.00000000       1.00000000       1.00000000       1.00000000       1.00000000       1.00000000       1.00000000       1.00000000       1.00000000       1.00000000       1.00000000       1.00000000       1.00000000       1.00000000       1.00000000       1.00000000       1.00000000       1.00000000       1.00000000       1.00000000       1.00000000       1.00000000       1.00000000       1.00000000       1.00000000       1.00000000       1.00000000       1.00000000       1.00000000       1.00000000       1.00000000       1.00000000       1.00000000       1.00000000       1.00000000       1.00000000       1.00000000       0.00000000    
 c2h: =
   0.00000000       0.00000000       0.00000000       0.00000000       0.00000000       0.00000000       0.00000000       0.00000000       0.00000000       0.00000000       0.00000000       0.00000000       0.00000000       0.00000000       0.00000000       0.00000000       0.00000000       0.00000000       0.00000000       0.00000000       0.00000000       0.00000000       0.00000000       0.00000000       0.00000000       0.00000000       0.00000000       0.00000000       0.00000000       0.00000000       0.00000000       0.00000000       0.00000000       0.00000000       0.00000000       0.00000000       0.00000000       0.00000000       0.00000000       0.00000000       0.00000000       0.00000000       0.00000000       0.00000000       0.00000000       0.00000000       0.00000000       0.00000000       0.00000000       0.00000000       0.00000000    
 dx: =    50.0000000    
 dy: =    50.0000000    
FIRE:Time       2.500 s Average wind           0.102E+01 m/s
FIRE:Time       2.500 s Maximum wind           0.102E+01 m/s
FIRE:Time       2.500 s Fire area              0.159E+03 m^2
FIRE:Time       2.500 s Heat output            0.219E+08 W
FIRE:Time       2.500 s Max heat flux          0.180E+05 W/m^2
FIRE:Time       2.500 s Latent heat output     0.201E+07 W
FIRE:Time       2.500 s Max latent heat flux   0.165E+04 W/m^2
Timing for main: time 0001-01-01_00:00:02 on domain   1:    2.41518 elapsed seconds
 itimestep =            6
 ph_2: i, j =          42          42
   0.00000000       13.8972149       26.6675510       38.4525795       49.3069458       59.2835999       68.4336624       76.7970581       84.3426743       91.1275024       97.2012939       102.614067       107.415344       111.651367       115.364349       118.581154       121.407219       123.877365       126.024338       127.877823       129.465698       130.813705       131.945587       132.883087       133.645981       134.252441       134.719528       135.006500       135.170792       135.227158       135.188553       135.067291       134.874359       134.619446       134.311569       133.946976       133.528656       133.079269       132.604767       132.110397       131.600800       131.080215       130.552048       130.019775       129.486145       128.953537       128.424149       127.899887       127.382294       126.872795       126.372696    
 phb: i, j =          42          42
   0.00000000       1707.28320       3361.90430       4964.50537       6515.84424       8016.72852       9467.99121       10870.6191       12225.7480       13534.3027       14797.2246       16015.4951       17190.0977       18322.0605       19412.4102       20462.0918       21471.9375       22443.0254       23376.4375       24273.2539       25134.5645       25961.4453       26754.9785       27516.2227       28246.2402       28946.0723       29616.7441       30259.1211       30874.1660       31462.8828       32026.2500       32565.2148       33080.7070       33573.6367       34044.8750       34495.2852       34925.6172       35336.6758       35729.2500       36104.1055       36461.9805       36803.5859       37129.6133       37440.7266       37737.5625       38020.7383       38290.8477       38548.4609       38794.1250       39028.3711       39251.6992    
 u_2: i, j =          42          42
   2.99920177       3.00030279       2.99974012       3.00014305       2.99999237       2.99992704       3.00002432       2.99998832       3.00001073       2.99996066       3.00002313       2.99998426       3.00001550       3.00001574       3.00002456       2.99998426       3.00000978       2.99999547       2.99999714       3.00001407       3.00000882       3.00003099       2.99995613       3.00003648       2.99998546       3.00000978       3.00000668       3.00001693       3.00000119       3.00000691       3.00001812       3.00001645       3.00000334       3.00001264       3.00002432       3.00000191       3.00002289       3.00000715       3.00001478       2.99998665       2.99998665       3.00000644       2.99999928       2.99998546       2.99998498       2.99999833       2.99998951       2.99999452       3.00002313       3.00001907       0.00000000    
 v_2: i, j =          42          42
  -6.12841221E-04   3.11950047E-04  -2.57935666E-04   1.05482643E-04   3.88518238E-05  -8.70807053E-05   4.07018124E-05  -6.80175935E-06   1.34398342E-05  -4.93406260E-05  -2.43932154E-05   1.70894123E-06  -1.86102648E-06  -2.02893025E-05   6.24725144E-05  -2.21735427E-05   1.90892006E-05   5.69427300E-07   7.65901768E-06  -2.74210252E-05  -8.17223463E-06  -1.09597340E-05  -2.50470202E-05   2.97281986E-05  -2.11737115E-05   2.33064748E-05   1.60912950E-05   4.90316779E-06   6.63570927E-06   1.68260904E-05   1.67784874E-05   7.46535261E-06   9.04772696E-06   1.90475646E-06  -8.67424149E-07   1.06728230E-05   3.60602053E-06  -3.42264912E-06   2.33358078E-05   4.77680123E-06  -2.72731031E-05  -1.02002978E-05   1.06870193E-05  -1.61829303E-05  -2.56834464E-05  -1.15778157E-05  -1.19776485E-06   8.90298816E-06   1.76020858E-05   1.55168545E-05   0.00000000    
 rho: i, j =          42          42
   1.20645893       1.18431342       1.16323328       1.14317644       1.12409067       1.10593545       1.08858299       1.07191825       1.05606437       1.04098308       1.02663946       1.01299524       1.00001264      0.987663031      0.976037562      0.965157211      0.954823971      0.945008516      0.935684204      0.926825285      0.918407738      0.910408854      0.902806818      0.895582139      0.888715327      0.882187843      0.876253486      0.870619535      0.865259588      0.860160649      0.855309844      0.850694776      0.846304297      0.842127264      0.838175058      0.834568441      0.831135690      0.827868402      0.824758470      0.821798682      0.818981409      0.816300690      0.813749075      0.811320662      0.809009910      0.806810915      0.804718018      0.802726448      0.800831139      0.799025893       0.00000000    
 z_at_w: i, j =          42          42
   0.00000000       175.451614       345.420135       509.985504       669.230469       823.242798       972.112549       1115.94446       1254.85120       1388.93274       1518.29004       1643.02844       1763.25305       1879.07336       1990.59888       2097.92798       2201.15625       2300.39771       2395.76562       2487.37305       2575.33423       2659.76123       2740.76685       2818.46118       2892.95459       2964.35498       3032.76880       3098.27979       3160.99243       3221.01001       3278.43408       3333.36182       3385.88989       3436.11182       3484.11694       3529.99268       3573.81689       3615.67310       3655.64258       3693.80371       3730.23242       3765.00171       3798.18164       3829.84155       3860.04541       3888.85718       3916.33765       3942.54419       3967.53369       3991.35986       4014.07422    
 dz8w: i, j =          42          42
   175.451614       169.968521       164.565369       159.244965       154.012329       148.869751       143.831909       138.906738       134.081543       129.357300       124.738403       120.224609       115.820312       111.525513       107.329102       103.228271       99.2414551       95.3679199       91.6074219       87.9611816       84.4270020       81.0056152       77.6943359       74.4934082       71.4003906       68.4138184       65.5109863       62.7126465       60.0175781       57.4240723       54.9277344       52.5280762       50.2219238       48.0051270       45.8757324       43.8242188       41.8562012       39.9694824       38.1611328       36.4287109       34.7692871       33.1799316       31.6599121       30.2038574       28.8117676       27.4804688       26.2065430       24.9895020       23.8261719       22.7143555       0.00000000    
 z0: i, j =          42          42
  0.100000001    
 ht: i, j =          42          42
   0.00000000    
 xlat: i, j =          42          42
   2075.00000    
 xlong: i, j =          42          42
   2075.00000    
 rainc: i, j =          42          42
   0.00000000    
 rainnc: i, j =          42          42
   0.00000000    
 t2: i, j =          42          42
   289.555023    
 q2: i, j =          42          42
   9.30605363E-03
 psfc: i, j =          42          42
   101694.445    
 mut: i, j =          42          42
   38739.2852    
 zsf: i, j =          42          42
   0.00000000    
 dzdxf: i, j =          42          42
   0.00000000    
 dzdyf: i, j =          42          42
   0.00000000    
 fxlat: i, j =          42          42
   518.750000    
 fxlong: i, j =          42          42
   518.750000    
 fz0: i, j =          42          42
  0.100000001    
 c1h: =
   1.00000000       1.00000000       1.00000000       1.00000000       1.00000000       1.00000000       1.00000000       1.00000000       1.00000000       1.00000000       1.00000000       1.00000000       1.00000000       1.00000000       1.00000000       1.00000000       1.00000000       1.00000000       1.00000000       1.00000000       1.00000000       1.00000000       1.00000000       1.00000000       1.00000000       1.00000000       1.00000000       1.00000000       1.00000000       1.00000000       1.00000000       1.00000000       1.00000000       1.00000000       1.00000000       1.00000000       1.00000000       1.00000000       1.00000000       1.00000000       1.00000000       1.00000000       1.00000000       1.00000000       1.00000000       1.00000000       1.00000000       1.00000000       1.00000000       1.00000000       0.00000000    
 c2h: =
   0.00000000       0.00000000       0.00000000       0.00000000       0.00000000       0.00000000       0.00000000       0.00000000       0.00000000       0.00000000       0.00000000       0.00000000       0.00000000       0.00000000       0.00000000       0.00000000       0.00000000       0.00000000       0.00000000       0.00000000       0.00000000       0.00000000       0.00000000       0.00000000       0.00000000       0.00000000       0.00000000       0.00000000       0.00000000       0.00000000       0.00000000       0.00000000       0.00000000       0.00000000       0.00000000       0.00000000       0.00000000       0.00000000       0.00000000       0.00000000       0.00000000       0.00000000       0.00000000       0.00000000       0.00000000       0.00000000       0.00000000       0.00000000       0.00000000       0.00000000       0.00000000    
 dx: =    50.0000000    
 dy: =    50.0000000    
FIRE:Time       3.000 s Average wind           0.102E+01 m/s
FIRE:Time       3.000 s Maximum wind           0.102E+01 m/s
FIRE:Time       3.000 s Fire area              0.224E+03 m^2
FIRE:Time       3.000 s Heat output            0.321E+08 W
FIRE:Time       3.000 s Max heat flux          0.232E+05 W/m^2
FIRE:Time       3.000 s Latent heat output     0.294E+07 W
FIRE:Time       3.000 s Max latent heat flux   0.213E+04 W/m^2
Timing for main: time 0001-01-01_00:00:03 on domain   1:    1.33952 elapsed seconds
Timing for Writing wrfout_d01_0001-01-01_00:00:03 for domain        1:    1.09561 elapsed seconds
 itimestep =            7
 ph_2: i, j =          42          42
   0.00000000       13.9482327       26.7185574       38.5017738       49.3541336       59.3292580       68.4773331       76.8393860       84.3833237       91.1665573       97.2387390       102.650078       107.449448       111.683907       115.394913       118.610512       121.434952       123.903786       126.049423       127.901657       129.488312       130.835251       131.965881       132.902161       133.664078       134.269562       134.735611       135.021561       135.184998       135.240433       135.200897       135.078659       134.884842       134.629135       134.320450       133.955124       133.536133       133.086166       132.611084       132.116119       131.605927       131.084671       130.556000       130.023239       129.489044       128.956009       128.426270       127.901611       127.383621       126.873726       126.373299    
 phb: i, j =          42          42
   0.00000000       1707.28320       3361.90430       4964.50537       6515.84424       8016.72852       9467.99121       10870.6191       12225.7480       13534.3027       14797.2246       16015.4951       17190.0977       18322.0605       19412.4102       20462.0918       21471.9375       22443.0254       23376.4375       24273.2539       25134.5645       25961.4453       26754.9785       27516.2227       28246.2402       28946.0723       29616.7441       30259.1211       30874.1660       31462.8828       32026.2500       32565.2148       33080.7070       33573.6367       34044.8750       34495.2852       34925.6172       35336.6758       35729.2500       36104.1055       36461.9805       36803.5859       37129.6133       37440.7266       37737.5625       38020.7383       38290.8477       38548.4609       38794.1250       39028.3711       39251.6992    
 u_2: i, j =          42          42
   2.99887681       3.00040150       2.99963331       3.00019717       2.99994254       3.00004005       2.99987864       3.00012755       2.99993968       3.00001287       2.99999666       3.00008035       3.00003052       2.99997807       3.00001121       3.00001907       2.99997187       3.00001216       2.99998569       3.00000620       2.99999261       2.99999118       2.99999285       3.00000834       3.00001884       2.99998474       2.99999809       3.00002289       2.99999404       3.00000262       3.00000739       3.00000310       2.99998379       3.00001240       2.99998713       2.99998593       2.99997544       3.00000024       3.00002027       3.00001812       3.00000858       2.99997735       2.99998879       3.00001383       3.00001478       2.99999666       3.00001693       3.00002265       3.00001550       3.00002766       0.00000000    
 v_2: i, j =          42          42
  -9.42487211E-04   4.31225868E-04  -3.85331630E-04   2.35152198E-04  -1.17540672E-04   8.55522158E-05  -1.41071432E-04   1.21561992E-04  -4.89153390E-05   8.05046784E-06   3.61509810E-05   2.67455689E-05   2.10707221E-05   1.83204393E-05  -1.77236689E-05   1.79307008E-05  -2.72880770E-05   2.73220794E-05  -3.08685958E-05   1.98918042E-05  -7.33960451E-06  -8.94990717E-06  -6.04363186E-06   5.59996170E-06   3.09525967E-05  -2.66779007E-05  -9.11402276E-06   3.32834929E-06   1.54345616E-06   1.47923674E-05  -2.15365480E-06  -9.30616261E-06  -1.73146964E-06   2.37689874E-05  -1.07508713E-05  -7.02839145E-07  -3.12451521E-05  -1.39754866E-06   5.29591304E-08   1.37024870E-06   2.80311888E-05  -2.16295780E-06  -1.65009988E-05   8.85400641E-06   1.48242952E-05   1.31892821E-05   1.71209940E-05   3.48970912E-06   3.79313565E-06   1.00795833E-05   0.00000000    
 rho: i, j =          42          42
   1.20642138       1.18431139       1.16323268       1.14317596       1.12408996       1.10593510       1.08858216       1.07191777       1.05606389       1.04098260       1.02663898       1.01299512       1.00001240      0.987663150      0.976037085      0.965157092      0.954823673      0.945008278      0.935683846      0.926824987      0.918407381      0.910408616      0.902806699      0.895581901      0.888715029      0.882187605      0.876253366      0.870619237      0.865259528      0.860160530      0.855309904      0.850694776      0.846304238      0.842127264      0.838175058      0.834568322      0.831135452      0.827868223      0.824758291      0.821798444      0.818981647      0.816300511      0.813748956      0.811320841      0.809009790      0.806810617      0.804717898      0.802726448      0.800831139      0.799025714       0.00000000    
 z_at_w: i, j =          42          42
   0.00000000       175.456818       345.425354       509.990540       669.235291       823.247437       972.117065       1115.94885       1254.85535       1388.93677       1518.29382       1643.03210       1763.25647       1879.07678       1990.60181       2097.93091       2201.15918       2300.40039       2395.76807       2487.37573       2575.33667       2659.76343       2740.76904       2818.46313       2892.95654       2964.35693       3032.77051       3098.28149       3160.99390       3221.01147       3278.43530       3333.36304       3385.89111       3436.11255       3484.11768       3529.99390       3573.81763       3615.67383       3655.64307       3693.80444       3730.23291       3765.00195       3798.18213       3829.84180       3860.04590       3888.85767       3916.33765       3942.54443       3967.53369       3991.36035       4014.07471    
 dz8w: i, j =          42          42
   175.456818       169.968536       164.565186       159.244751       154.012146       148.869629       143.831787       138.906494       134.081421       129.357056       124.738281       120.224365       115.820312       111.525024       107.329102       103.228271       99.2412109       95.3676758       91.6076660       87.9609375       84.4267578       81.0056152       77.6940918       74.4934082       71.4003906       68.4135742       65.5109863       62.7124023       60.0175781       57.4238281       54.9277344       52.5280762       50.2214355       48.0051270       45.8762207       43.8237305       41.8562012       39.9692383       38.1613770       36.4284668       34.7690430       33.1801758       31.6596680       30.2041016       28.8117676       27.4799805       26.2067871       24.9892578       23.8266602       22.7143555       0.00000000    
 z0: i, j =          42          42
  0.100000001    
 ht: i, j =          42          42
   0.00000000    
 xlat: i, j =          42          42
   2075.00000    
 xlong: i, j =          42          42
   2075.00000    
 rainc: i, j =          42          42
   0.00000000    
 rainnc: i, j =          42          42
   0.00000000    
 t2: i, j =          42          42
   289.554565    
 q2: i, j =          42          42
   9.30639263E-03
 psfc: i, j =          42          42
   101694.352    
 mut: i, j =          42          42
   38739.2188    
 zsf: i, j =          42          42
   0.00000000    
 dzdxf: i, j =          42          42
   0.00000000    
 dzdyf: i, j =          42          42
   0.00000000    
 fxlat: i, j =          42          42
   518.750000    
 fxlong: i, j =          42          42
   518.750000    
 fz0: i, j =          42          42
  0.100000001    
 c1h: =
   1.00000000       1.00000000       1.00000000       1.00000000       1.00000000       1.00000000       1.00000000       1.00000000       1.00000000       1.00000000       1.00000000       1.00000000       1.00000000       1.00000000       1.00000000       1.00000000       1.00000000       1.00000000       1.00000000       1.00000000       1.00000000       1.00000000       1.00000000       1.00000000       1.00000000       1.00000000       1.00000000       1.00000000       1.00000000       1.00000000       1.00000000       1.00000000       1.00000000       1.00000000       1.00000000       1.00000000       1.00000000       1.00000000       1.00000000       1.00000000       1.00000000       1.00000000       1.00000000       1.00000000       1.00000000       1.00000000       1.00000000       1.00000000       1.00000000       1.00000000       0.00000000    
 c2h: =
   0.00000000       0.00000000       0.00000000       0.00000000       0.00000000       0.00000000       0.00000000       0.00000000       0.00000000       0.00000000       0.00000000       0.00000000       0.00000000       0.00000000       0.00000000       0.00000000       0.00000000       0.00000000       0.00000000       0.00000000       0.00000000       0.00000000       0.00000000       0.00000000       0.00000000       0.00000000       0.00000000       0.00000000       0.00000000       0.00000000       0.00000000       0.00000000       0.00000000       0.00000000       0.00000000       0.00000000       0.00000000       0.00000000       0.00000000       0.00000000       0.00000000       0.00000000       0.00000000       0.00000000       0.00000000       0.00000000       0.00000000       0.00000000       0.00000000       0.00000000       0.00000000    
 dx: =    50.0000000    
 dy: =    50.0000000    
FIRE:Time       3.500 s Average wind           0.102E+01 m/s
FIRE:Time       3.500 s Maximum wind           0.102E+01 m/s
FIRE:Time       3.500 s Fire area              0.302E+03 m^2
FIRE:Time       3.500 s Heat output            0.447E+08 W
FIRE:Time       3.500 s Max heat flux          0.292E+05 W/m^2
FIRE:Time       3.500 s Latent heat output     0.410E+07 W
FIRE:Time       3.500 s Max latent heat flux   0.268E+04 W/m^2
Timing for main: time 0001-01-01_00:00:03 on domain   1:    2.44614 elapsed seconds
 itimestep =            8
 ph_2: i, j =          42          42
   0.00000000       14.0128851       26.7828617       38.5638809       49.4136429       59.3864021       68.5323334       76.8918686       84.4334946       91.2150574       97.2849045       102.694237       107.491806       111.724258       115.433868       118.647507       121.470436       123.937416       126.081230       127.931778       129.516998       130.862396       131.991791       132.926636       133.687195       134.291412       134.756210       135.040848       135.202911       135.257080       135.216370       135.092987       134.898163       134.641495       134.331863       133.965698       133.545853       133.094971       132.619064       132.123352       131.612488       131.090576       130.561264       130.027863       129.493103       128.959442       128.429062       127.903870       127.385384       126.875000       126.374054    
 phb: i, j =          42          42
   0.00000000       1707.28320       3361.90430       4964.50537       6515.84424       8016.72852       9467.99121       10870.6191       12225.7480       13534.3027       14797.2246       16015.4951       17190.0977       18322.0605       19412.4102       20462.0918       21471.9375       22443.0254       23376.4375       24273.2539       25134.5645       25961.4453       26754.9785       27516.2227       28246.2402       28946.0723       29616.7441       30259.1211       30874.1660       31462.8828       32026.2500       32565.2148       33080.7070       33573.6367       34044.8750       34495.2852       34925.6172       35336.6758       35729.2500       36104.1055       36461.9805       36803.5859       37129.6133       37440.7266       37737.5625       38020.7383       38290.8477       38548.4609       38794.1250       39028.3711       39251.6992    
 u_2: i, j =          42          42
   2.99852061       3.00044823       2.99964261       3.00020075       2.99991441       3.00004959       2.99998546       2.99997449       3.00007653       2.99992561       2.99999189       3.00001264       2.99994564       2.99997830       2.99999785       2.99999547       2.99997902       2.99998689       3.00002360       2.99998236       3.00001812       2.99997258       3.00003386       3.00000095       3.00000596       2.99999833       3.00000477       2.99999142       2.99999499       2.99999309       3.00001121       3.00000525       3.00000334       3.00001764       2.99999118       3.00002384       3.00001693       3.00000358       2.99996829       2.99998784       2.99999237       3.00000000       2.99999142       2.99999189       3.00000334       2.99999762       2.99999642       2.99999714       2.99999833       3.00005960       0.00000000    
 v_2: i, j =          42          42
  -1.23164593E-03   4.68277285E-04  -3.59450933E-04   2.14780113E-04  -4.84496741E-05   1.72483851E-05  -6.71715179E-06  -1.00228517E-05   3.34550932E-05  -1.49795678E-05  -1.90082801E-06   5.05272401E-05  -8.66015907E-05  -4.29151150E-05   2.96045473E-05  -1.02301137E-05   6.38926758E-06  -5.66239078E-06   2.44844232E-05  -2.37893837E-05   1.91139079E-05  -2.41581292E-05  -4.00668966E-07  -2.02062693E-05   2.81775665E-05  -9.96166727E-06   9.00927171E-06   1.03011271E-05  -1.86797115E-05  -1.16711508E-05   1.18026774E-05  -9.22603590E-07  -7.67105848E-06   1.00354782E-05  -1.92118077E-05  -5.75013655E-06   3.36239027E-05   2.32703587E-05  -3.69611007E-05  -1.05324416E-05  -1.36351946E-05  -2.26113229E-06   1.49985372E-05   4.09920813E-06   8.95144331E-06   2.62547223E-06  -2.00886097E-05  -1.32804162E-05   1.04927421E-05   4.95828608E-05   0.00000000    
 rho: i, j =          42          42
   1.20637429       1.18430901       1.16323173       1.14317548       1.12408924       1.10593438       1.08858180       1.07191730       1.05606294       1.04098237       1.02663851       1.01299453       1.00001204      0.987662256      0.976036727      0.965156436      0.954823315      0.945008039      0.935683668      0.926824570      0.918407142      0.910408139      0.902806520      0.895581484      0.888714731      0.882187426      0.876253307      0.870619357      0.865259528      0.860160530      0.855309904      0.850694716      0.846304119      0.842127144      0.838174820      0.834568202      0.831135511      0.827868223      0.824758232      0.821798325      0.818981469      0.816300452      0.813748896      0.811320603      0.809009850      0.806810856      0.804717839      0.802726388      0.800831139      0.799025893       0.00000000    
 z_at_w: i, j =          42          42
   0.00000000       175.463409       345.431915       509.996857       669.241333       823.253235       972.122620       1115.95410       1254.86047       1388.94165       1518.29858       1643.03662       1763.26086       1879.08093       1990.60583       2097.93481       2201.16284       2300.40381       2395.77148       2487.37866       2575.33960       2659.76636       2740.77173       2818.46558       2892.95898       2964.35913       3032.77246       3098.28345       3160.99561       3221.01318       3278.43677       3333.36475       3385.89233       3436.11377       3484.11890       3529.99487       3573.81885       3615.67456       3655.64380       3693.80518       3730.23364       3765.00244       3798.18286       3829.84229       3860.04614       3888.85815       3916.33789       3942.54443       3967.53418       3991.36035       4014.07471    
 dz8w: i, j =          42          42
   175.463409       169.968506       164.564941       159.244476       154.011902       148.869385       143.831482       138.906372       134.081177       129.356934       124.738037       120.224243       115.820068       111.524902       107.328979       103.228027       99.2409668       95.3676758       91.6071777       87.9609375       84.4267578       81.0053711       77.6938477       74.4934082       71.4001465       68.4133301       65.5109863       62.7121582       60.0175781       57.4235840       54.9279785       52.5275879       50.2214355       48.0051270       45.8759766       43.8239746       41.8557129       39.9692383       38.1613770       36.4284668       34.7687988       33.1804199       31.6594238       30.2038574       28.8120117       27.4797363       26.2065430       24.9897461       23.8261719       22.7143555       0.00000000    
 z0: i, j =          42          42
  0.100000001    
 ht: i, j =          42          42
   0.00000000    
 xlat: i, j =          42          42
   2075.00000    
 xlong: i, j =          42          42
   2075.00000    
 rainc: i, j =          42          42
   0.00000000    
 rainnc: i, j =          42          42
   0.00000000    
 t2: i, j =          42          42
   289.553955    
 q2: i, j =          42          42
   9.30683222E-03
 psfc: i, j =          42          42
   101694.258    
 mut: i, j =          42          42
   38739.1367    
 zsf: i, j =          42          42
   0.00000000    
 dzdxf: i, j =          42          42
   0.00000000    
 dzdyf: i, j =          42          42
   0.00000000    
 fxlat: i, j =          42          42
   518.750000    
 fxlong: i, j =          42          42
   518.750000    
 fz0: i, j =          42          42
  0.100000001    
 c1h: =
   1.00000000       1.00000000       1.00000000       1.00000000       1.00000000       1.00000000       1.00000000       1.00000000       1.00000000       1.00000000       1.00000000       1.00000000       1.00000000       1.00000000       1.00000000       1.00000000       1.00000000       1.00000000       1.00000000       1.00000000       1.00000000       1.00000000       1.00000000       1.00000000       1.00000000       1.00000000       1.00000000       1.00000000       1.00000000       1.00000000       1.00000000       1.00000000       1.00000000       1.00000000       1.00000000       1.00000000       1.00000000       1.00000000       1.00000000       1.00000000       1.00000000       1.00000000       1.00000000       1.00000000       1.00000000       1.00000000       1.00000000       1.00000000       1.00000000       1.00000000       0.00000000    
 c2h: =
   0.00000000       0.00000000       0.00000000       0.00000000       0.00000000       0.00000000       0.00000000       0.00000000       0.00000000       0.00000000       0.00000000       0.00000000       0.00000000       0.00000000       0.00000000       0.00000000       0.00000000       0.00000000       0.00000000       0.00000000       0.00000000       0.00000000       0.00000000       0.00000000       0.00000000       0.00000000       0.00000000       0.00000000       0.00000000       0.00000000       0.00000000       0.00000000       0.00000000       0.00000000       0.00000000       0.00000000       0.00000000       0.00000000       0.00000000       0.00000000       0.00000000       0.00000000       0.00000000       0.00000000       0.00000000       0.00000000       0.00000000       0.00000000       0.00000000       0.00000000       0.00000000    
 dx: =    50.0000000    
 dy: =    50.0000000    
FIRE:Time       4.000 s Average wind           0.102E+01 m/s
FIRE:Time       4.000 s Maximum wind           0.102E+01 m/s
FIRE:Time       4.000 s Fire area              0.396E+03 m^2
FIRE:Time       4.000 s Heat output            0.603E+08 W
FIRE:Time       4.000 s Max heat flux          0.361E+05 W/m^2
FIRE:Time       4.000 s Latent heat output     0.553E+07 W
FIRE:Time       4.000 s Max latent heat flux   0.331E+04 W/m^2
Timing for main: time 0001-01-01_00:00:04 on domain   1:    1.34991 elapsed seconds
Timing for Writing wrfout_d01_0001-01-01_00:00:04 for domain        1:    1.09020 elapsed seconds
 itimestep =            9
 ph_2: i, j =          42          42
   0.00000000       14.0971098       26.8663845       38.6443634       49.4917946       59.4607391       68.6041260       76.9607315       84.4999313       91.2782135       97.3459625       102.752495       107.547501       111.777657       115.484505       118.696014       121.516113       123.980743       126.122314       127.970604       129.553513       130.897018       132.024368       132.957550       133.716293       134.318634       134.781616       135.064667       135.225342       135.278183       135.236130       135.111450       134.915359       134.657410       134.346466       133.979126       133.558151       133.106216       132.629227       132.132523       131.620667       131.097900       130.567719       130.033569       129.498047       128.963699       128.432648       127.906754       127.387604       126.876579       126.375053    
 phb: i, j =          42          42
[...]
 dx: =    50.0000000    
 dy: =    50.0000000    
FIRE:Time       9.000 s Average wind           0.102E+01 m/s
FIRE:Time       9.000 s Maximum wind           0.103E+01 m/s
FIRE:Time       9.000 s Fire area              0.285E+04 m^2
FIRE:Time       9.000 s Heat output            0.102E+10 W
FIRE:Time       9.000 s Max heat flux          0.103E+07 W/m^2
FIRE:Time       9.000 s Latent heat output     0.935E+08 W
FIRE:Time       9.000 s Max latent heat flux   0.948E+05 W/m^2
Timing for main: time 0001-01-01_00:00:09 on domain   1:    1.35455 elapsed seconds
Timing for Writing wrfout_d01_0001-01-01_00:00:09 for domain        1:    1.30766 elapsed seconds
 itimestep =           19
 ph_2: i, j =          42          42
   0.00000000       19.9007092       32.5664749       44.0900841       54.7489700       64.5344849       73.4573975       81.6207886       88.9832687       95.5622787       101.450470       106.681602       111.300369       115.361145       118.903229       121.952576       124.615784       126.927734       128.921082       130.625534       132.068863       133.277054       134.273575       135.080093       135.716721       136.201141       136.549805       136.722626       136.776901       136.727158       136.586533       136.367004       136.079727       135.734146       135.339233       134.890930       134.392181       133.865616       133.317276       132.752014       132.174637       131.588959       130.998657       130.406876       129.816238       129.229187       128.647766       128.073730       127.508591       126.953667       126.410149    
 phb: i, j =          42          42
   0.00000000       1707.28320       3361.90430       4964.50537       6515.84424       8016.72852       9467.99121       10870.6191       12225.7480       13534.3027       14797.2246       16015.4951       17190.0977       18322.0605       19412.4102       20462.0918       21471.9375       22443.0254       23376.4375       24273.2539       25134.5645       25961.4453       26754.9785       27516.2227       28246.2402       28946.0723       29616.7441       30259.1211       30874.1660       31462.8828       32026.2500       32565.2148       33080.7070       33573.6367       34044.8750       34495.2852       34925.6172       35336.6758       35729.2500       36104.1055       36461.9805       36803.5859       37129.6133       37440.7266       37737.5625       38020.7383       38290.8477       38548.4609       38794.1250       39028.3711       39251.6992    
 u_2: i, j =          42          42
   2.94451952       3.03611422       2.97766733       3.00705171       2.99511933       3.00666332       2.99324369       3.00253463       3.00150824       2.99684453       3.00140882       2.99992394       2.99933028       3.00015616       2.99972963       2.99990797       2.99982071       2.99985695       2.99989104       2.99979639       2.99987221       2.99984360       2.99986458       2.99982810       2.99986076       2.99983144       2.99984860       2.99989390       2.99980140       2.99983811       2.99981117       2.99985123       2.99985623       2.99983501       2.99984741       2.99984431       2.99985266       2.99983382       2.99985075       2.99980688       2.99985194       2.99983191       2.99982929       2.99984694       2.99987817       2.99986577       2.99990392       3.00001216       3.00036073       3.00130296       0.00000000    
 v_2: i, j =          42          42
  -5.61653711E-02   3.86543050E-02  -2.35410649E-02   7.91832805E-03  -5.33510791E-03   7.10422872E-03  -6.98371278E-03   2.82529835E-03   1.43939722E-03  -2.98107881E-03   1.44314056E-03  -4.83083568E-05  -5.10149694E-04   1.41791010E-04  -1.94270353E-04   3.00758875E-05  -2.61872745E-04   2.59507196E-05  -6.78658544E-05  -2.07975361E-04   2.08794027E-05  -1.69428400E-04  -4.92992331E-06  -1.02417660E-04  -2.97488532E-05  -6.40724829E-05  -8.52628800E-05  -4.90424900E-05  -1.11620880E-04  -7.50558538E-05  -1.04152023E-04  -9.03264881E-05  -7.18088413E-05  -9.85271399E-05  -7.61652045E-05  -7.42580814E-05  -8.11091522E-05  -8.75994301E-05  -5.35393410E-05  -8.85343179E-05  -7.69910475E-05  -7.54614812E-05  -9.25683999E-05  -6.80367884E-05  -8.26143223E-05  -7.13074915E-05  -2.20931033E-05   5.51678968E-05   3.25330650E-04   1.14671933E-03   0.00000000    
 rho: i, j =          42          42
   1.20207596       1.18415701       1.16319406       1.14309573       1.12401295       1.10589123       1.08852434       1.07185245       1.05602312       1.04093170       1.02659094       1.01295376      0.999971390      0.987624288      0.976002038      0.965123951      0.954792738      0.944979131      0.935656726      0.926799595      0.918383598      0.910386205      0.902785897      0.895562112      0.888696611      0.882171214      0.876238108      0.870605350      0.865246773      0.860148609      0.855298936      0.850684583      0.846295118      0.842118740      0.838167667      0.834561884      0.831129909      0.827862918      0.824753821      0.821794331      0.818978012      0.816297293      0.813746393      0.811318636      0.809008241      0.806809425      0.804717064      0.802725732      0.800830722      0.799025953       0.00000000    
 z_at_w: i, j =          42          42
   0.00000000       176.063599       346.021454       510.560150       669.785217       823.778076       972.624634       1116.43628       1255.32422       1389.38477       1518.72314       1643.44299       1763.64905       1879.45166       1990.95935       2098.27148       2201.48340       2300.70874       2396.06104       2487.65308       2575.59961       2660.01245       2741.00415       2818.68506       2893.16577       2964.55371       3032.95532       3098.45483       3161.15625       3221.16284       3278.57642       3333.49438       3386.01270       3436.22534       3484.22144       3530.08911       3573.90479       3615.75342       3655.71509       3693.86938       3730.29102       3765.05347       3798.22754       3829.88086       3860.07935       3888.88550       3916.36035       3942.56201       3967.54639       3991.36816       4014.07837    
 dz8w: i, j =          42          42
   176.063599       169.957855       164.538696       159.225067       153.992859       148.846558       143.811646       138.887939       134.060547       129.338379       124.719849       120.206055       115.802612       111.507690       107.312134       103.211914       99.2253418       95.3522949       91.5920410       87.9465332       84.4128418       80.9916992       77.6809082       74.4807129       71.3879395       68.4016113       65.4995117       62.7014160       60.0065918       57.4135742       54.9179688       52.5183105       50.2126465       47.9960938       45.8676758       43.8156738       41.8486328       39.9616699       38.1542969       36.4216309       34.7624512       33.1740723       31.6533203       30.1984863       28.8061523       27.4748535       26.2016602       24.9843750       23.8217773       22.7102051       0.00000000    
 z0: i, j =          42          42
  0.100000001    
 ht: i, j =          42          42
   0.00000000    
 xlat: i, j =          42          42
   2075.00000    
 xlong: i, j =          42          42
   2075.00000    
 rainc: i, j =          42          42
   0.00000000    
 rainnc: i, j =          42          42
   0.00000000    
 t2: i, j =          42          42
   289.722809    
 q2: i, j =          42          42
   9.34539363E-03
 psfc: i, j =          42          42
   101686.898    
 mut: i, j =          42          42
   38731.7383    
 zsf: i, j =          42          42
   0.00000000    
 dzdxf: i, j =          42          42
   0.00000000    
 dzdyf: i, j =          42          42
   0.00000000    
 fxlat: i, j =          42          42
   518.750000    
 fxlong: i, j =          42          42
   518.750000    
 fz0: i, j =          42          42
  0.100000001    
 c1h: =
   1.00000000       1.00000000       1.00000000       1.00000000       1.00000000       1.00000000       1.00000000       1.00000000       1.00000000       1.00000000       1.00000000       1.00000000       1.00000000       1.00000000       1.00000000       1.00000000       1.00000000       1.00000000       1.00000000       1.00000000       1.00000000       1.00000000       1.00000000       1.00000000       1.00000000       1.00000000       1.00000000       1.00000000       1.00000000       1.00000000       1.00000000       1.00000000       1.00000000       1.00000000       1.00000000       1.00000000       1.00000000       1.00000000       1.00000000       1.00000000       1.00000000       1.00000000       1.00000000       1.00000000       1.00000000       1.00000000       1.00000000       1.00000000       1.00000000       1.00000000       0.00000000    
 c2h: =
   0.00000000       0.00000000       0.00000000       0.00000000       0.00000000       0.00000000       0.00000000       0.00000000       0.00000000       0.00000000       0.00000000       0.00000000       0.00000000       0.00000000       0.00000000       0.00000000       0.00000000       0.00000000       0.00000000       0.00000000       0.00000000       0.00000000       0.00000000       0.00000000       0.00000000       0.00000000       0.00000000       0.00000000       0.00000000       0.00000000       0.00000000       0.00000000       0.00000000       0.00000000       0.00000000       0.00000000       0.00000000       0.00000000       0.00000000       0.00000000       0.00000000       0.00000000       0.00000000       0.00000000       0.00000000       0.00000000       0.00000000       0.00000000       0.00000000       0.00000000       0.00000000    
 dx: =    50.0000000    
 dy: =    50.0000000    
FIRE:Time       9.500 s Average wind           0.102E+01 m/s
FIRE:Time       9.500 s Maximum wind           0.103E+01 m/s
FIRE:Time       9.500 s Fire area              0.331E+04 m^2
FIRE:Time       9.500 s Heat output            0.111E+10 W
FIRE:Time       9.500 s Max heat flux          0.104E+07 W/m^2
FIRE:Time       9.500 s Latent heat output     0.102E+09 W
FIRE:Time       9.500 s Max latent heat flux   0.951E+05 W/m^2
Timing for main: time 0001-01-01_00:00:09 on domain   1:    2.65431 elapsed seconds
 itimestep =           20
 ph_2: i, j =          42          42
   0.00000000       20.6353683       33.4235764       45.0176506       55.5394211       65.3187866       74.2272110       82.3491898       89.6673050       96.2428360       102.089775       107.297615       111.891693       115.922318       119.442352       122.466255       125.104675       127.393700       129.364075       131.046249       132.468491       133.656509       134.632751       135.419983       136.037842       136.504166       136.835342       136.990997       137.028793       136.963303       136.807571       136.573502       136.272232       135.913162       135.505264       135.044479       134.533813       133.995987       133.436661       132.861069       132.273575       131.678345       131.078812       130.478271       129.879257       129.284149       128.695053       128.113647       127.541351       126.979538       126.429619    
 phb: i, j =          42          42
   0.00000000       1707.28320       3361.90430       4964.50537       6515.84424       8016.72852       9467.99121       10870.6191       12225.7480       13534.3027       14797.2246       16015.4951       17190.0977       18322.0605       19412.4102       20462.0918       21471.9375       22443.0254       23376.4375       24273.2539       25134.5645       25961.4453       26754.9785       27516.2227       28246.2402       28946.0723       29616.7441       30259.1211       30874.1660       31462.8828       32026.2500       32565.2148       33080.7070       33573.6367       34044.8750       34495.2852       34925.6172       35336.6758       35729.2500       36104.1055       36461.9805       36803.5859       37129.6133       37440.7266       37737.5625       38020.7383       38290.8477       38548.4609       38794.1250       39028.3711       39251.6992    
 u_2: i, j =          42          42
   2.97141862       2.97662115       3.03090739       2.98576975       3.00038671       3.00273514       3.00018191       2.99845147       2.99979472       3.00197291       2.99716282       3.00283837       2.99875593       2.99962401       3.00106454       2.99938917       3.00014019       3.00016069       2.99999619       2.99999642       3.00002885       3.00000453       3.00004435       3.00004506       3.00002527       3.00003052       3.00005436       3.00008774       3.00000310       3.00006104       3.00003576       3.00003576       3.00000381       2.99999142       3.00005460       3.00004578       2.99998426       3.00005770       3.00000477       3.00007892       3.00005293       3.00007319       3.00006342       3.00006485       3.00004578       3.00009513       3.00017214       3.00023174       3.00046945       3.00136685       0.00000000    
 v_2: i, j =          42          42
  -3.00934259E-02  -1.97315235E-02   2.94655059E-02  -1.36453565E-02   5.52420970E-04   2.65760208E-03   3.85177787E-04  -1.69614342E-03   6.27284971E-05   1.88800518E-03  -2.75793090E-03   2.95411563E-03  -1.30311132E-03  -1.82136864E-04   1.12954411E-03  -5.67009673E-04   3.86747095E-04   1.36855015E-04   8.69092401E-05   1.32098503E-04   8.98858780E-05   1.57396105E-04   7.75667795E-05   1.17622418E-04   6.94673508E-05   9.27612782E-05   1.40206947E-04   1.36188464E-04   8.50933284E-05   1.34611313E-04   1.08137749E-04   1.17323529E-04   1.36122530E-04   9.62010890E-05   1.54004505E-04   1.34228321E-04   7.30299289E-05   1.32430985E-04   5.76687380E-05   1.19358738E-04   1.12637892E-04   1.01085869E-04   1.16930256E-04   9.75717558E-05   1.08439366E-04   1.27457271E-04   1.80853924E-04   2.49457720E-04   4.19277931E-04   1.13437977E-03   0.00000000    
 rho: i, j =          42          42
   1.20153618       1.18403602       1.16310954       1.14316285       1.12398493       1.10586989       1.08852470       1.07185614       1.05599523       1.04093528       1.02658081       1.01294565      0.999969065      0.987615526      0.975997448      0.965119541      0.954787493      0.944974959      0.935652792      0.926795363      0.918379307      0.910383046      0.902782500      0.895559251      0.888693869      0.882168770      0.876236200      0.870603561      0.865244806      0.860146821      0.855297267      0.850683153      0.846293867      0.842117548      0.838166654      0.834560931      0.831128716      0.827862144      0.824752748      0.821793854      0.818977296      0.816296935      0.813745797      0.811318159      0.809007823      0.806809008      0.804716825      0.802725971      0.800831199      0.799025834       0.00000000    
 z_at_w: i, j =          42          42
   0.00000000       176.138489       346.108856       510.654724       669.865784       823.858032       972.703186       1116.51050       1255.39392       1389.45410       1518.78833       1643.50586       1763.70947       1879.50879       1991.01440       2098.32397       2201.53345       2300.75635       2396.10596       2487.69629       2575.64038       2660.05103       2741.04077       2818.71973       2893.19849       2964.58472       3032.98462       3098.48218       3161.18188       3221.18701       3278.59888       3333.51562       3386.03247       3436.24365       3484.23828       3530.10474       3573.91968       3615.76660       3655.72754       3693.88013       3730.30103       3765.06250       3798.23535       3829.88794       3860.08569       3888.89111       3916.36499       3942.56592       3967.55005       3991.37109       4014.08032    
 dz8w: i, j =          42          42
   176.138489       169.970367       164.545868       159.211060       153.992249       148.845154       143.807312       138.883423       134.060181       129.334229       124.717529       120.203613       115.799316       111.505615       107.309570       103.209473       99.2229004       95.3496094       91.5903320       87.9440918       84.4106445       80.9897461       77.6789551       74.4787598       71.3862305       68.3999023       65.4975586       62.6997070       60.0051270       57.4118652       54.9167480       52.5168457       50.2111816       47.9946289       45.8664551       43.8149414       41.8469238       39.9609375       38.1525879       36.4208984       34.7614746       33.1728516       31.6525879       30.1977539       28.8054199       27.4738770       26.2009277       24.9841309       23.8210449       22.7092285       0.00000000    
 z0: i, j =          42          42
  0.100000001    
 ht: i, j =          42          42
   0.00000000    
 xlat: i, j =          42          42
   2075.00000    
 xlong: i, j =          42          42
   2075.00000    
 rainc: i, j =          42          42
   0.00000000    
 rainnc: i, j =          42          42
   0.00000000    
 t2: i, j =          42          42
   289.762726    
 q2: i, j =          42          42
   9.35080647E-03
 psfc: i, j =          42          42
   101685.773    
 mut: i, j =          42          42
   38730.6211    
 zsf: i, j =          42          42
   0.00000000    
 dzdxf: i, j =          42          42
   0.00000000    
 dzdyf: i, j =          42          42
   0.00000000    
 fxlat: i, j =          42          42
   518.750000    
 fxlong: i, j =          42          42
   518.750000    
 fz0: i, j =          42          42
  0.100000001    
 c1h: =
   1.00000000       1.00000000       1.00000000       1.00000000       1.00000000       1.00000000       1.00000000       1.00000000       1.00000000       1.00000000       1.00000000       1.00000000       1.00000000       1.00000000       1.00000000       1.00000000       1.00000000       1.00000000       1.00000000       1.00000000       1.00000000       1.00000000       1.00000000       1.00000000       1.00000000       1.00000000       1.00000000       1.00000000       1.00000000       1.00000000       1.00000000       1.00000000       1.00000000       1.00000000       1.00000000       1.00000000       1.00000000       1.00000000       1.00000000       1.00000000       1.00000000       1.00000000       1.00000000       1.00000000       1.00000000       1.00000000       1.00000000       1.00000000       1.00000000       1.00000000       0.00000000    
 c2h: =
   0.00000000       0.00000000       0.00000000       0.00000000       0.00000000       0.00000000       0.00000000       0.00000000       0.00000000       0.00000000       0.00000000       0.00000000       0.00000000       0.00000000       0.00000000       0.00000000       0.00000000       0.00000000       0.00000000       0.00000000       0.00000000       0.00000000       0.00000000       0.00000000       0.00000000       0.00000000       0.00000000       0.00000000       0.00000000       0.00000000       0.00000000       0.00000000       0.00000000       0.00000000       0.00000000       0.00000000       0.00000000       0.00000000       0.00000000       0.00000000       0.00000000       0.00000000       0.00000000       0.00000000       0.00000000       0.00000000       0.00000000       0.00000000       0.00000000       0.00000000       0.00000000    
 dx: =    50.0000000    
 dy: =    50.0000000    
FIRE:Time      10.000 s Average wind           0.102E+01 m/s
FIRE:Time      10.000 s Maximum wind           0.103E+01 m/s
FIRE:Time      10.000 s Fire area              0.382E+04 m^2
FIRE:Time      10.000 s Heat output            0.121E+10 W
FIRE:Time      10.000 s Max heat flux          0.104E+07 W/m^2
FIRE:Time      10.000 s Latent heat output     0.111E+09 W
FIRE:Time      10.000 s Max latent heat flux   0.953E+05 W/m^2
Timing for main: time 0001-01-01_00:00:10 on domain   1:    1.34777 elapsed seconds
Timing for Writing wrfout_d01_0001-01-01_00:00:10 for domain        1:    1.10480 elapsed seconds
d01 0001-01-01_00:00:10 wrf: SUCCESS COMPLETE WRF
