taskid: 0 hostname: r3i2n28
Quilting with   1 groups of   0 I/O tasks.
 Ntasks in X            1 , ntasks in Y            1
  Domain # 1: dx =    50.000 m
WRF V4.3.3 MODEL
git commit f10d917d5c98473ea9b33e59f3ee29813454bd01 2 files changed, 137 insertions(+), 2 deletions(-)
 *************************************
 Parent domain
 ids,ide,jds,jde            1         103           1         103
 ims,ime,jms,jme           -4         108          -4         108
 ips,ipe,jps,jpe            1         103           1         103
 *************************************
DYNAMICS OPTION: Eulerian Mass Coordinate
   alloc_space_field: domain            1 ,             359650200  bytes allocated
  med_initialdata_input: calling input_input
   Input data is acceptable to use: wrfinput_d01
 CURRENT DATE          = 0001-01-01_00:00:00
 SIMULATION START DATE = 0001-01-01_00:00:00
Timing for processing wrfinput file (stream 0) for domain        1:    0.40498 elapsed seconds
Max map factor in domain 1 =  0.00. Scale the dt in the model accordingly.
FIRE:fire_driver_em_init: FIRE initialization start
FIRE:Using ideal ignition coordinates, m from the lower left domain corner
FIRE:Reading file namelist.fire
FIRE:Namelist fuel_moisture not found, using defaults
Timing for Writing wrfout_d01_0001-01-01_00:00:00 for domain        1:    0.66852 elapsed seconds
 Tile Strategy is not specified. Assuming 1D-Y
WRF TILE   1 IS      1 IE    103 JS      1 JE    103
WRF NUMBER OF TILES =   1
FIRE:Time       0.500 s Average wind           0.102E+01 m/s
FIRE:Time       0.500 s Maximum wind           0.102E+01 m/s
FIRE:Time       0.500 s Fire area              0.000E+00 m^2
FIRE:Time       0.500 s Heat output            0.000E+00 W
FIRE:Time       0.500 s Max heat flux          0.000E+00 W/m^2
FIRE:Time       0.500 s Latent heat output     0.000E+00 W
FIRE:Time       0.500 s Max latent heat flux   0.000E+00 W/m^2
d01 0001-01-01_00:00:00  ----------------------------------------
d01 0001-01-01_00:00:00  W-DAMPING  BEGINS AT W-COURANT NUMBER =    1.00000000
d01 0001-01-01_00:00:00  ----------------------------------------
Timing for main: time 0001-01-01_00:00:00 on domain   1:    2.15130 elapsed seconds
FIRE:Time       1.000 s Average wind           0.102E+01 m/s
FIRE:Time       1.000 s Maximum wind           0.102E+01 m/s
FIRE:Time       1.000 s Fire area              0.000E+00 m^2
FIRE:Time       1.000 s Heat output            0.000E+00 W
FIRE:Time       1.000 s Max heat flux          0.000E+00 W/m^2
FIRE:Time       1.000 s Latent heat output     0.000E+00 W
FIRE:Time       1.000 s Max latent heat flux   0.000E+00 W/m^2
Timing for main: time 0001-01-01_00:00:01 on domain   1:    1.77250 elapsed seconds
FIRE:Time       1.500 s Average wind           0.102E+01 m/s
FIRE:Time       1.500 s Maximum wind           0.102E+01 m/s
FIRE:Time       1.500 s Fire area              0.000E+00 m^2
FIRE:Time       1.500 s Heat output            0.000E+00 W
FIRE:Time       1.500 s Max heat flux          0.000E+00 W/m^2
FIRE:Time       1.500 s Latent heat output     0.000E+00 W
FIRE:Time       1.500 s Max latent heat flux   0.000E+00 W/m^2
Timing for main: time 0001-01-01_00:00:01 on domain   1:    1.69111 elapsed seconds
FIRE:Time       2.000 s Average wind           0.102E+01 m/s
FIRE:Time       2.000 s Maximum wind           0.102E+01 m/s
FIRE:Time       2.000 s Fire area              0.000E+00 m^2
FIRE:Time       2.000 s Heat output            0.000E+00 W
FIRE:Time       2.000 s Max heat flux          0.000E+00 W/m^2
FIRE:Time       2.000 s Latent heat output     0.000E+00 W
FIRE:Time       2.000 s Max latent heat flux   0.000E+00 W/m^2
Timing for main: time 0001-01-01_00:00:02 on domain   1:    1.63437 elapsed seconds
FIRE:Time       2.500 s Average wind           0.102E+01 m/s
FIRE:Time       2.500 s Maximum wind           0.102E+01 m/s
FIRE:Time       2.500 s Fire area              0.000E+00 m^2
FIRE:Time       2.500 s Heat output            0.000E+00 W
FIRE:Time       2.500 s Max heat flux          0.000E+00 W/m^2
FIRE:Time       2.500 s Latent heat output     0.000E+00 W
FIRE:Time       2.500 s Max latent heat flux   0.000E+00 W/m^2
Timing for main: time 0001-01-01_00:00:02 on domain   1:    1.48315 elapsed seconds
FIRE:Time       3.000 s Average wind           0.102E+01 m/s
FIRE:Time       3.000 s Maximum wind           0.102E+01 m/s
FIRE:Time       3.000 s Fire area              0.000E+00 m^2
FIRE:Time       3.000 s Heat output            0.000E+00 W
FIRE:Time       3.000 s Max heat flux          0.000E+00 W/m^2
FIRE:Time       3.000 s Latent heat output     0.000E+00 W
FIRE:Time       3.000 s Max latent heat flux   0.000E+00 W/m^2
Timing for main: time 0001-01-01_00:00:03 on domain   1:    1.32487 elapsed seconds
FIRE:Time       3.500 s Average wind           0.102E+01 m/s
FIRE:Time       3.500 s Maximum wind           0.102E+01 m/s
FIRE:Time       3.500 s Fire area              0.000E+00 m^2
FIRE:Time       3.500 s Heat output            0.000E+00 W
FIRE:Time       3.500 s Max heat flux          0.000E+00 W/m^2
FIRE:Time       3.500 s Latent heat output     0.000E+00 W
FIRE:Time       3.500 s Max latent heat flux   0.000E+00 W/m^2
Timing for main: time 0001-01-01_00:00:03 on domain   1:    1.32315 elapsed seconds
FIRE:Time       4.000 s Average wind           0.102E+01 m/s
FIRE:Time       4.000 s Maximum wind           0.102E+01 m/s
FIRE:Time       4.000 s Fire area              0.000E+00 m^2
FIRE:Time       4.000 s Heat output            0.000E+00 W
FIRE:Time       4.000 s Max heat flux          0.000E+00 W/m^2
FIRE:Time       4.000 s Latent heat output     0.000E+00 W
FIRE:Time       4.000 s Max latent heat flux   0.000E+00 W/m^2
Timing for main: time 0001-01-01_00:00:04 on domain   1:    1.32509 elapsed seconds
FIRE:Time       4.500 s Average wind           0.102E+01 m/s
FIRE:Time       4.500 s Maximum wind           0.102E+01 m/s
FIRE:Time       4.500 s Fire area              0.000E+00 m^2
FIRE:Time       4.500 s Heat output            0.000E+00 W
FIRE:Time       4.500 s Max heat flux          0.000E+00 W/m^2
FIRE:Time       4.500 s Latent heat output     0.000E+00 W
FIRE:Time       4.500 s Max latent heat flux   0.000E+00 W/m^2
Timing for main: time 0001-01-01_00:00:04 on domain   1:    1.32321 elapsed seconds
FIRE:Time       5.000 s Average wind           0.102E+01 m/s
FIRE:Time       5.000 s Maximum wind           0.102E+01 m/s
FIRE:Time       5.000 s Fire area              0.000E+00 m^2
FIRE:Time       5.000 s Heat output            0.000E+00 W
FIRE:Time       5.000 s Max heat flux          0.000E+00 W/m^2
FIRE:Time       5.000 s Latent heat output     0.000E+00 W
FIRE:Time       5.000 s Max latent heat flux   0.000E+00 W/m^2
Timing for main: time 0001-01-01_00:00:05 on domain   1:    1.32465 elapsed seconds
FIRE:Time       5.500 s Average wind           0.102E+01 m/s
FIRE:Time       5.500 s Maximum wind           0.102E+01 m/s
FIRE:Time       5.500 s Fire area              0.000E+00 m^2
FIRE:Time       5.500 s Heat output            0.000E+00 W
FIRE:Time       5.500 s Max heat flux          0.000E+00 W/m^2
FIRE:Time       5.500 s Latent heat output     0.000E+00 W
FIRE:Time       5.500 s Max latent heat flux   0.000E+00 W/m^2
Timing for main: time 0001-01-01_00:00:05 on domain   1:    1.32374 elapsed seconds
FIRE:Time       6.000 s Average wind           0.102E+01 m/s
FIRE:Time       6.000 s Maximum wind           0.102E+01 m/s
FIRE:Time       6.000 s Fire area              0.000E+00 m^2
FIRE:Time       6.000 s Heat output            0.000E+00 W
FIRE:Time       6.000 s Max heat flux          0.000E+00 W/m^2
FIRE:Time       6.000 s Latent heat output     0.000E+00 W
FIRE:Time       6.000 s Max latent heat flux   0.000E+00 W/m^2
Timing for main: time 0001-01-01_00:00:06 on domain   1:    1.32537 elapsed seconds
FIRE:Time       6.500 s Average wind           0.102E+01 m/s
FIRE:Time       6.500 s Maximum wind           0.102E+01 m/s
FIRE:Time       6.500 s Fire area              0.000E+00 m^2
FIRE:Time       6.500 s Heat output            0.000E+00 W
FIRE:Time       6.500 s Max heat flux          0.000E+00 W/m^2
FIRE:Time       6.500 s Latent heat output     0.000E+00 W
FIRE:Time       6.500 s Max latent heat flux   0.000E+00 W/m^2
Timing for main: time 0001-01-01_00:00:06 on domain   1:    1.32423 elapsed seconds
FIRE:Time       7.000 s Average wind           0.102E+01 m/s
FIRE:Time       7.000 s Maximum wind           0.102E+01 m/s
FIRE:Time       7.000 s Fire area              0.000E+00 m^2
FIRE:Time       7.000 s Heat output            0.000E+00 W
FIRE:Time       7.000 s Max heat flux          0.000E+00 W/m^2
FIRE:Time       7.000 s Latent heat output     0.000E+00 W
FIRE:Time       7.000 s Max latent heat flux   0.000E+00 W/m^2
Timing for main: time 0001-01-01_00:00:07 on domain   1:    1.32324 elapsed seconds
FIRE:Time       7.500 s Average wind           0.102E+01 m/s
FIRE:Time       7.500 s Maximum wind           0.102E+01 m/s
FIRE:Time       7.500 s Fire area              0.000E+00 m^2
FIRE:Time       7.500 s Heat output            0.000E+00 W
FIRE:Time       7.500 s Max heat flux          0.000E+00 W/m^2
FIRE:Time       7.500 s Latent heat output     0.000E+00 W
FIRE:Time       7.500 s Max latent heat flux   0.000E+00 W/m^2
Timing for main: time 0001-01-01_00:00:07 on domain   1:    1.32322 elapsed seconds
FIRE:Time       8.000 s Average wind           0.102E+01 m/s
FIRE:Time       8.000 s Maximum wind           0.102E+01 m/s
FIRE:Time       8.000 s Fire area              0.000E+00 m^2
FIRE:Time       8.000 s Heat output            0.000E+00 W
FIRE:Time       8.000 s Max heat flux          0.000E+00 W/m^2
FIRE:Time       8.000 s Latent heat output     0.000E+00 W
FIRE:Time       8.000 s Max latent heat flux   0.000E+00 W/m^2
Timing for main: time 0001-01-01_00:00:08 on domain   1:    1.32521 elapsed seconds
FIRE:Time       8.500 s Average wind           0.102E+01 m/s
FIRE:Time       8.500 s Maximum wind           0.102E+01 m/s
FIRE:Time       8.500 s Fire area              0.000E+00 m^2
FIRE:Time       8.500 s Heat output            0.000E+00 W
FIRE:Time       8.500 s Max heat flux          0.000E+00 W/m^2
FIRE:Time       8.500 s Latent heat output     0.000E+00 W
FIRE:Time       8.500 s Max latent heat flux   0.000E+00 W/m^2
Timing for main: time 0001-01-01_00:00:08 on domain   1:    1.32494 elapsed seconds
FIRE:Time       9.000 s Average wind           0.102E+01 m/s
FIRE:Time       9.000 s Maximum wind           0.102E+01 m/s
FIRE:Time       9.000 s Fire area              0.000E+00 m^2
FIRE:Time       9.000 s Heat output            0.000E+00 W
FIRE:Time       9.000 s Max heat flux          0.000E+00 W/m^2
FIRE:Time       9.000 s Latent heat output     0.000E+00 W
FIRE:Time       9.000 s Max latent heat flux   0.000E+00 W/m^2
Timing for main: time 0001-01-01_00:00:09 on domain   1:    1.32195 elapsed seconds
FIRE:Time       9.500 s Average wind           0.102E+01 m/s
FIRE:Time       9.500 s Maximum wind           0.102E+01 m/s
FIRE:Time       9.500 s Fire area              0.000E+00 m^2
FIRE:Time       9.500 s Heat output            0.000E+00 W
FIRE:Time       9.500 s Max heat flux          0.000E+00 W/m^2
FIRE:Time       9.500 s Latent heat output     0.000E+00 W
FIRE:Time       9.500 s Max latent heat flux   0.000E+00 W/m^2
Timing for main: time 0001-01-01_00:00:09 on domain   1:    1.32400 elapsed seconds
FIRE:Time      10.000 s Average wind           0.102E+01 m/s
FIRE:Time      10.000 s Maximum wind           0.102E+01 m/s
FIRE:Time      10.000 s Fire area              0.000E+00 m^2
FIRE:Time      10.000 s Heat output            0.000E+00 W
FIRE:Time      10.000 s Max heat flux          0.000E+00 W/m^2
FIRE:Time      10.000 s Latent heat output     0.000E+00 W
FIRE:Time      10.000 s Max latent heat flux   0.000E+00 W/m^2
Timing for main: time 0001-01-01_00:00:10 on domain   1:    1.32360 elapsed seconds
FIRE:Time      10.500 s Average wind           0.102E+01 m/s
FIRE:Time      10.500 s Maximum wind           0.102E+01 m/s
FIRE:Time      10.500 s Fire area              0.000E+00 m^2
FIRE:Time      10.500 s Heat output            0.000E+00 W
FIRE:Time      10.500 s Max heat flux          0.000E+00 W/m^2
FIRE:Time      10.500 s Latent heat output     0.000E+00 W
FIRE:Time      10.500 s Max latent heat flux   0.000E+00 W/m^2
Timing for main: time 0001-01-01_00:00:10 on domain   1:    1.32308 elapsed seconds
FIRE:Time      11.000 s Average wind           0.102E+01 m/s
FIRE:Time      11.000 s Maximum wind           0.102E+01 m/s
FIRE:Time      11.000 s Fire area              0.000E+00 m^2
FIRE:Time      11.000 s Heat output            0.000E+00 W
FIRE:Time      11.000 s Max heat flux          0.000E+00 W/m^2
FIRE:Time      11.000 s Latent heat output     0.000E+00 W
FIRE:Time      11.000 s Max latent heat flux   0.000E+00 W/m^2
Timing for main: time 0001-01-01_00:00:11 on domain   1:    1.32308 elapsed seconds
FIRE:Time      11.500 s Average wind           0.102E+01 m/s
FIRE:Time      11.500 s Maximum wind           0.102E+01 m/s
FIRE:Time      11.500 s Fire area              0.000E+00 m^2
FIRE:Time      11.500 s Heat output            0.000E+00 W
FIRE:Time      11.500 s Max heat flux          0.000E+00 W/m^2
FIRE:Time      11.500 s Latent heat output     0.000E+00 W
FIRE:Time      11.500 s Max latent heat flux   0.000E+00 W/m^2
Timing for main: time 0001-01-01_00:00:11 on domain   1:    1.32509 elapsed seconds
FIRE:Time      12.000 s Average wind           0.102E+01 m/s
FIRE:Time      12.000 s Maximum wind           0.102E+01 m/s
FIRE:Time      12.000 s Fire area              0.000E+00 m^2
FIRE:Time      12.000 s Heat output            0.000E+00 W
FIRE:Time      12.000 s Max heat flux          0.000E+00 W/m^2
FIRE:Time      12.000 s Latent heat output     0.000E+00 W
FIRE:Time      12.000 s Max latent heat flux   0.000E+00 W/m^2
Timing for main: time 0001-01-01_00:00:12 on domain   1:    1.32545 elapsed seconds
FIRE:Time      12.500 s Average wind           0.102E+01 m/s
FIRE:Time      12.500 s Maximum wind           0.102E+01 m/s
FIRE:Time      12.500 s Fire area              0.000E+00 m^2
FIRE:Time      12.500 s Heat output            0.000E+00 W
FIRE:Time      12.500 s Max heat flux          0.000E+00 W/m^2
FIRE:Time      12.500 s Latent heat output     0.000E+00 W
FIRE:Time      12.500 s Max latent heat flux   0.000E+00 W/m^2
Timing for main: time 0001-01-01_00:00:12 on domain   1:    1.32547 elapsed seconds
FIRE:Time      13.000 s Average wind           0.102E+01 m/s
FIRE:Time      13.000 s Maximum wind           0.102E+01 m/s
FIRE:Time      13.000 s Fire area              0.000E+00 m^2
FIRE:Time      13.000 s Heat output            0.000E+00 W
FIRE:Time      13.000 s Max heat flux          0.000E+00 W/m^2
FIRE:Time      13.000 s Latent heat output     0.000E+00 W
FIRE:Time      13.000 s Max latent heat flux   0.000E+00 W/m^2
Timing for main: time 0001-01-01_00:00:13 on domain   1:    1.32431 elapsed seconds
FIRE:Time      13.500 s Average wind           0.102E+01 m/s
FIRE:Time      13.500 s Maximum wind           0.102E+01 m/s
FIRE:Time      13.500 s Fire area              0.000E+00 m^2
FIRE:Time      13.500 s Heat output            0.000E+00 W
FIRE:Time      13.500 s Max heat flux          0.000E+00 W/m^2
FIRE:Time      13.500 s Latent heat output     0.000E+00 W
FIRE:Time      13.500 s Max latent heat flux   0.000E+00 W/m^2
Timing for main: time 0001-01-01_00:00:13 on domain   1:    1.32584 elapsed seconds
FIRE:Time      14.000 s Average wind           0.102E+01 m/s
FIRE:Time      14.000 s Maximum wind           0.102E+01 m/s
FIRE:Time      14.000 s Fire area              0.000E+00 m^2
FIRE:Time      14.000 s Heat output            0.000E+00 W
FIRE:Time      14.000 s Max heat flux          0.000E+00 W/m^2
FIRE:Time      14.000 s Latent heat output     0.000E+00 W
FIRE:Time      14.000 s Max latent heat flux   0.000E+00 W/m^2
Timing for main: time 0001-01-01_00:00:14 on domain   1:    1.32468 elapsed seconds
FIRE:Time      14.500 s Average wind           0.102E+01 m/s
FIRE:Time      14.500 s Maximum wind           0.102E+01 m/s
FIRE:Time      14.500 s Fire area              0.000E+00 m^2
FIRE:Time      14.500 s Heat output            0.000E+00 W
FIRE:Time      14.500 s Max heat flux          0.000E+00 W/m^2
FIRE:Time      14.500 s Latent heat output     0.000E+00 W
FIRE:Time      14.500 s Max latent heat flux   0.000E+00 W/m^2
Timing for main: time 0001-01-01_00:00:14 on domain   1:    1.32369 elapsed seconds
FIRE:Time      15.000 s Average wind           0.102E+01 m/s
FIRE:Time      15.000 s Maximum wind           0.102E+01 m/s
FIRE:Time      15.000 s Fire area              0.000E+00 m^2
FIRE:Time      15.000 s Heat output            0.000E+00 W
FIRE:Time      15.000 s Max heat flux          0.000E+00 W/m^2
FIRE:Time      15.000 s Latent heat output     0.000E+00 W
FIRE:Time      15.000 s Max latent heat flux   0.000E+00 W/m^2
Timing for main: time 0001-01-01_00:00:15 on domain   1:    1.32530 elapsed seconds
FIRE:Time      15.500 s Average wind           0.102E+01 m/s
FIRE:Time      15.500 s Maximum wind           0.102E+01 m/s
FIRE:Time      15.500 s Fire area              0.000E+00 m^2
FIRE:Time      15.500 s Heat output            0.000E+00 W
FIRE:Time      15.500 s Max heat flux          0.000E+00 W/m^2
FIRE:Time      15.500 s Latent heat output     0.000E+00 W
FIRE:Time      15.500 s Max latent heat flux   0.000E+00 W/m^2
Timing for main: time 0001-01-01_00:00:15 on domain   1:    1.32290 elapsed seconds
FIRE:Time      16.000 s Average wind           0.102E+01 m/s
FIRE:Time      16.000 s Maximum wind           0.102E+01 m/s
FIRE:Time      16.000 s Fire area              0.000E+00 m^2
FIRE:Time      16.000 s Heat output            0.000E+00 W
FIRE:Time      16.000 s Max heat flux          0.000E+00 W/m^2
FIRE:Time      16.000 s Latent heat output     0.000E+00 W
FIRE:Time      16.000 s Max latent heat flux   0.000E+00 W/m^2
Timing for main: time 0001-01-01_00:00:16 on domain   1:    1.32379 elapsed seconds
FIRE:Time      16.500 s Average wind           0.102E+01 m/s
FIRE:Time      16.500 s Maximum wind           0.102E+01 m/s
FIRE:Time      16.500 s Fire area              0.000E+00 m^2
FIRE:Time      16.500 s Heat output            0.000E+00 W
FIRE:Time      16.500 s Max heat flux          0.000E+00 W/m^2
FIRE:Time      16.500 s Latent heat output     0.000E+00 W
FIRE:Time      16.500 s Max latent heat flux   0.000E+00 W/m^2
Timing for main: time 0001-01-01_00:00:16 on domain   1:    1.32536 elapsed seconds
FIRE:Time      17.000 s Average wind           0.102E+01 m/s
FIRE:Time      17.000 s Maximum wind           0.102E+01 m/s
FIRE:Time      17.000 s Fire area              0.000E+00 m^2
FIRE:Time      17.000 s Heat output            0.000E+00 W
FIRE:Time      17.000 s Max heat flux          0.000E+00 W/m^2
FIRE:Time      17.000 s Latent heat output     0.000E+00 W
FIRE:Time      17.000 s Max latent heat flux   0.000E+00 W/m^2
Timing for main: time 0001-01-01_00:00:17 on domain   1:    1.32500 elapsed seconds
FIRE:Time      17.500 s Average wind           0.102E+01 m/s
FIRE:Time      17.500 s Maximum wind           0.102E+01 m/s
FIRE:Time      17.500 s Fire area              0.000E+00 m^2
FIRE:Time      17.500 s Heat output            0.000E+00 W
FIRE:Time      17.500 s Max heat flux          0.000E+00 W/m^2
FIRE:Time      17.500 s Latent heat output     0.000E+00 W
FIRE:Time      17.500 s Max latent heat flux   0.000E+00 W/m^2
Timing for main: time 0001-01-01_00:00:17 on domain   1:    1.32318 elapsed seconds
FIRE:Time      18.000 s Average wind           0.102E+01 m/s
FIRE:Time      18.000 s Maximum wind           0.102E+01 m/s
FIRE:Time      18.000 s Fire area              0.000E+00 m^2
FIRE:Time      18.000 s Heat output            0.000E+00 W
FIRE:Time      18.000 s Max heat flux          0.000E+00 W/m^2
FIRE:Time      18.000 s Latent heat output     0.000E+00 W
FIRE:Time      18.000 s Max latent heat flux   0.000E+00 W/m^2
Timing for main: time 0001-01-01_00:00:18 on domain   1:    1.32436 elapsed seconds
FIRE:Time      18.500 s Average wind           0.102E+01 m/s
FIRE:Time      18.500 s Maximum wind           0.102E+01 m/s
FIRE:Time      18.500 s Fire area              0.000E+00 m^2
FIRE:Time      18.500 s Heat output            0.000E+00 W
FIRE:Time      18.500 s Max heat flux          0.000E+00 W/m^2
FIRE:Time      18.500 s Latent heat output     0.000E+00 W
FIRE:Time      18.500 s Max latent heat flux   0.000E+00 W/m^2
Timing for main: time 0001-01-01_00:00:18 on domain   1:    1.32375 elapsed seconds
FIRE:Time      19.000 s Average wind           0.102E+01 m/s
FIRE:Time      19.000 s Maximum wind           0.102E+01 m/s
FIRE:Time      19.000 s Fire area              0.000E+00 m^2
FIRE:Time      19.000 s Heat output            0.000E+00 W
FIRE:Time      19.000 s Max heat flux          0.000E+00 W/m^2
FIRE:Time      19.000 s Latent heat output     0.000E+00 W
FIRE:Time      19.000 s Max latent heat flux   0.000E+00 W/m^2
Timing for main: time 0001-01-01_00:00:19 on domain   1:    1.32389 elapsed seconds
FIRE:Time      19.500 s Average wind           0.102E+01 m/s
FIRE:Time      19.500 s Maximum wind           0.102E+01 m/s
FIRE:Time      19.500 s Fire area              0.000E+00 m^2
FIRE:Time      19.500 s Heat output            0.000E+00 W
FIRE:Time      19.500 s Max heat flux          0.000E+00 W/m^2
FIRE:Time      19.500 s Latent heat output     0.000E+00 W
FIRE:Time      19.500 s Max latent heat flux   0.000E+00 W/m^2
Timing for main: time 0001-01-01_00:00:19 on domain   1:    1.32477 elapsed seconds
FIRE:Time      20.000 s Average wind           0.102E+01 m/s
FIRE:Time      20.000 s Maximum wind           0.102E+01 m/s
FIRE:Time      20.000 s Fire area              0.000E+00 m^2
FIRE:Time      20.000 s Heat output            0.000E+00 W
FIRE:Time      20.000 s Max heat flux          0.000E+00 W/m^2
FIRE:Time      20.000 s Latent heat output     0.000E+00 W
FIRE:Time      20.000 s Max latent heat flux   0.000E+00 W/m^2
Timing for main: time 0001-01-01_00:00:20 on domain   1:    1.32289 elapsed seconds
FIRE:Time      20.500 s Average wind           0.102E+01 m/s
FIRE:Time      20.500 s Maximum wind           0.102E+01 m/s
FIRE:Time      20.500 s Fire area              0.000E+00 m^2
FIRE:Time      20.500 s Heat output            0.000E+00 W
FIRE:Time      20.500 s Max heat flux          0.000E+00 W/m^2
FIRE:Time      20.500 s Latent heat output     0.000E+00 W
FIRE:Time      20.500 s Max latent heat flux   0.000E+00 W/m^2
Timing for main: time 0001-01-01_00:00:20 on domain   1:    1.32309 elapsed seconds
FIRE:Time      21.000 s Average wind           0.102E+01 m/s
FIRE:Time      21.000 s Maximum wind           0.102E+01 m/s
FIRE:Time      21.000 s Fire area              0.000E+00 m^2
FIRE:Time      21.000 s Heat output            0.000E+00 W
FIRE:Time      21.000 s Max heat flux          0.000E+00 W/m^2
FIRE:Time      21.000 s Latent heat output     0.000E+00 W
FIRE:Time      21.000 s Max latent heat flux   0.000E+00 W/m^2
Timing for main: time 0001-01-01_00:00:21 on domain   1:    1.32481 elapsed seconds
FIRE:Time      21.500 s Average wind           0.102E+01 m/s
FIRE:Time      21.500 s Maximum wind           0.102E+01 m/s
FIRE:Time      21.500 s Fire area              0.000E+00 m^2
FIRE:Time      21.500 s Heat output            0.000E+00 W
FIRE:Time      21.500 s Max heat flux          0.000E+00 W/m^2
FIRE:Time      21.500 s Latent heat output     0.000E+00 W
FIRE:Time      21.500 s Max latent heat flux   0.000E+00 W/m^2
Timing for main: time 0001-01-01_00:00:21 on domain   1:    1.32335 elapsed seconds
FIRE:Time      22.000 s Average wind           0.102E+01 m/s
FIRE:Time      22.000 s Maximum wind           0.102E+01 m/s
FIRE:Time      22.000 s Fire area              0.000E+00 m^2
FIRE:Time      22.000 s Heat output            0.000E+00 W
FIRE:Time      22.000 s Max heat flux          0.000E+00 W/m^2
FIRE:Time      22.000 s Latent heat output     0.000E+00 W
FIRE:Time      22.000 s Max latent heat flux   0.000E+00 W/m^2
Timing for main: time 0001-01-01_00:00:22 on domain   1:    1.32301 elapsed seconds
FIRE:Time      22.500 s Average wind           0.102E+01 m/s
FIRE:Time      22.500 s Maximum wind           0.102E+01 m/s
FIRE:Time      22.500 s Fire area              0.000E+00 m^2
FIRE:Time      22.500 s Heat output            0.000E+00 W
FIRE:Time      22.500 s Max heat flux          0.000E+00 W/m^2
FIRE:Time      22.500 s Latent heat output     0.000E+00 W
FIRE:Time      22.500 s Max latent heat flux   0.000E+00 W/m^2
Timing for main: time 0001-01-01_00:00:22 on domain   1:    1.32530 elapsed seconds
FIRE:Time      23.000 s Average wind           0.102E+01 m/s
FIRE:Time      23.000 s Maximum wind           0.102E+01 m/s
FIRE:Time      23.000 s Fire area              0.000E+00 m^2
FIRE:Time      23.000 s Heat output            0.000E+00 W
FIRE:Time      23.000 s Max heat flux          0.000E+00 W/m^2
FIRE:Time      23.000 s Latent heat output     0.000E+00 W
FIRE:Time      23.000 s Max latent heat flux   0.000E+00 W/m^2
Timing for main: time 0001-01-01_00:00:23 on domain   1:    1.32330 elapsed seconds
FIRE:Time      23.500 s Average wind           0.102E+01 m/s
FIRE:Time      23.500 s Maximum wind           0.102E+01 m/s
FIRE:Time      23.500 s Fire area              0.000E+00 m^2
FIRE:Time      23.500 s Heat output            0.000E+00 W
FIRE:Time      23.500 s Max heat flux          0.000E+00 W/m^2
FIRE:Time      23.500 s Latent heat output     0.000E+00 W
FIRE:Time      23.500 s Max latent heat flux   0.000E+00 W/m^2
Timing for main: time 0001-01-01_00:00:23 on domain   1:    1.32404 elapsed seconds
FIRE:Time      24.000 s Average wind           0.102E+01 m/s
FIRE:Time      24.000 s Maximum wind           0.102E+01 m/s
FIRE:Time      24.000 s Fire area              0.000E+00 m^2
FIRE:Time      24.000 s Heat output            0.000E+00 W
FIRE:Time      24.000 s Max heat flux          0.000E+00 W/m^2
FIRE:Time      24.000 s Latent heat output     0.000E+00 W
FIRE:Time      24.000 s Max latent heat flux   0.000E+00 W/m^2
Timing for main: time 0001-01-01_00:00:24 on domain   1:    1.32320 elapsed seconds
FIRE:Time      24.500 s Average wind           0.102E+01 m/s
FIRE:Time      24.500 s Maximum wind           0.102E+01 m/s
FIRE:Time      24.500 s Fire area              0.000E+00 m^2
FIRE:Time      24.500 s Heat output            0.000E+00 W
FIRE:Time      24.500 s Max heat flux          0.000E+00 W/m^2
FIRE:Time      24.500 s Latent heat output     0.000E+00 W
FIRE:Time      24.500 s Max latent heat flux   0.000E+00 W/m^2
Timing for main: time 0001-01-01_00:00:24 on domain   1:    1.32312 elapsed seconds
FIRE:Time      25.000 s Average wind           0.102E+01 m/s
FIRE:Time      25.000 s Maximum wind           0.102E+01 m/s
FIRE:Time      25.000 s Fire area              0.000E+00 m^2
FIRE:Time      25.000 s Heat output            0.000E+00 W
FIRE:Time      25.000 s Max heat flux          0.000E+00 W/m^2
FIRE:Time      25.000 s Latent heat output     0.000E+00 W
FIRE:Time      25.000 s Max latent heat flux   0.000E+00 W/m^2
Timing for main: time 0001-01-01_00:00:25 on domain   1:    1.32340 elapsed seconds
FIRE:Time      25.500 s Average wind           0.102E+01 m/s
FIRE:Time      25.500 s Maximum wind           0.102E+01 m/s
FIRE:Time      25.500 s Fire area              0.000E+00 m^2
FIRE:Time      25.500 s Heat output            0.000E+00 W
FIRE:Time      25.500 s Max heat flux          0.000E+00 W/m^2
FIRE:Time      25.500 s Latent heat output     0.000E+00 W
FIRE:Time      25.500 s Max latent heat flux   0.000E+00 W/m^2
Timing for main: time 0001-01-01_00:00:25 on domain   1:    1.32405 elapsed seconds
FIRE:Time      26.000 s Average wind           0.102E+01 m/s
FIRE:Time      26.000 s Maximum wind           0.102E+01 m/s
FIRE:Time      26.000 s Fire area              0.000E+00 m^2
FIRE:Time      26.000 s Heat output            0.000E+00 W
FIRE:Time      26.000 s Max heat flux          0.000E+00 W/m^2
FIRE:Time      26.000 s Latent heat output     0.000E+00 W
FIRE:Time      26.000 s Max latent heat flux   0.000E+00 W/m^2
Timing for main: time 0001-01-01_00:00:26 on domain   1:    1.32313 elapsed seconds
FIRE:Time      26.500 s Average wind           0.102E+01 m/s
FIRE:Time      26.500 s Maximum wind           0.102E+01 m/s
FIRE:Time      26.500 s Fire area              0.000E+00 m^2
FIRE:Time      26.500 s Heat output            0.000E+00 W
FIRE:Time      26.500 s Max heat flux          0.000E+00 W/m^2
FIRE:Time      26.500 s Latent heat output     0.000E+00 W
FIRE:Time      26.500 s Max latent heat flux   0.000E+00 W/m^2
Timing for main: time 0001-01-01_00:00:26 on domain   1:    1.32316 elapsed seconds
FIRE:Time      27.000 s Average wind           0.102E+01 m/s
FIRE:Time      27.000 s Maximum wind           0.102E+01 m/s
FIRE:Time      27.000 s Fire area              0.000E+00 m^2
FIRE:Time      27.000 s Heat output            0.000E+00 W
FIRE:Time      27.000 s Max heat flux          0.000E+00 W/m^2
FIRE:Time      27.000 s Latent heat output     0.000E+00 W
FIRE:Time      27.000 s Max latent heat flux   0.000E+00 W/m^2
Timing for main: time 0001-01-01_00:00:27 on domain   1:    1.32434 elapsed seconds
FIRE:Time      27.500 s Average wind           0.102E+01 m/s
FIRE:Time      27.500 s Maximum wind           0.102E+01 m/s
FIRE:Time      27.500 s Fire area              0.000E+00 m^2
FIRE:Time      27.500 s Heat output            0.000E+00 W
FIRE:Time      27.500 s Max heat flux          0.000E+00 W/m^2
FIRE:Time      27.500 s Latent heat output     0.000E+00 W
FIRE:Time      27.500 s Max latent heat flux   0.000E+00 W/m^2
Timing for main: time 0001-01-01_00:00:27 on domain   1:    1.32324 elapsed seconds
FIRE:Time      28.000 s Average wind           0.102E+01 m/s
FIRE:Time      28.000 s Maximum wind           0.102E+01 m/s
FIRE:Time      28.000 s Fire area              0.000E+00 m^2
FIRE:Time      28.000 s Heat output            0.000E+00 W
FIRE:Time      28.000 s Max heat flux          0.000E+00 W/m^2
FIRE:Time      28.000 s Latent heat output     0.000E+00 W
FIRE:Time      28.000 s Max latent heat flux   0.000E+00 W/m^2
Timing for main: time 0001-01-01_00:00:28 on domain   1:    1.32371 elapsed seconds
FIRE:Time      28.500 s Average wind           0.102E+01 m/s
FIRE:Time      28.500 s Maximum wind           0.102E+01 m/s
FIRE:Time      28.500 s Fire area              0.000E+00 m^2
FIRE:Time      28.500 s Heat output            0.000E+00 W
FIRE:Time      28.500 s Max heat flux          0.000E+00 W/m^2
FIRE:Time      28.500 s Latent heat output     0.000E+00 W
FIRE:Time      28.500 s Max latent heat flux   0.000E+00 W/m^2
Timing for main: time 0001-01-01_00:00:28 on domain   1:    1.32466 elapsed seconds
FIRE:Time      29.000 s Average wind           0.102E+01 m/s
FIRE:Time      29.000 s Maximum wind           0.102E+01 m/s
FIRE:Time      29.000 s Fire area              0.000E+00 m^2
FIRE:Time      29.000 s Heat output            0.000E+00 W
FIRE:Time      29.000 s Max heat flux          0.000E+00 W/m^2
FIRE:Time      29.000 s Latent heat output     0.000E+00 W
FIRE:Time      29.000 s Max latent heat flux   0.000E+00 W/m^2
Timing for main: time 0001-01-01_00:00:29 on domain   1:    1.32448 elapsed seconds
FIRE:Time      29.500 s Average wind           0.102E+01 m/s
FIRE:Time      29.500 s Maximum wind           0.102E+01 m/s
FIRE:Time      29.500 s Fire area              0.000E+00 m^2
FIRE:Time      29.500 s Heat output            0.000E+00 W
FIRE:Time      29.500 s Max heat flux          0.000E+00 W/m^2
FIRE:Time      29.500 s Latent heat output     0.000E+00 W
FIRE:Time      29.500 s Max latent heat flux   0.000E+00 W/m^2
Timing for main: time 0001-01-01_00:00:29 on domain   1:    1.32511 elapsed seconds
FIRE:Time      30.000 s Average wind           0.102E+01 m/s
FIRE:Time      30.000 s Maximum wind           0.102E+01 m/s
FIRE:Time      30.000 s Fire area              0.000E+00 m^2
FIRE:Time      30.000 s Heat output            0.000E+00 W
FIRE:Time      30.000 s Max heat flux          0.000E+00 W/m^2
FIRE:Time      30.000 s Latent heat output     0.000E+00 W
FIRE:Time      30.000 s Max latent heat flux   0.000E+00 W/m^2
Timing for main: time 0001-01-01_00:00:30 on domain   1:    1.32310 elapsed seconds
FIRE:Time      30.500 s Average wind           0.102E+01 m/s
FIRE:Time      30.500 s Maximum wind           0.102E+01 m/s
FIRE:Time      30.500 s Fire area              0.000E+00 m^2
FIRE:Time      30.500 s Heat output            0.000E+00 W
FIRE:Time      30.500 s Max heat flux          0.000E+00 W/m^2
FIRE:Time      30.500 s Latent heat output     0.000E+00 W
FIRE:Time      30.500 s Max latent heat flux   0.000E+00 W/m^2
Timing for main: time 0001-01-01_00:00:30 on domain   1:    1.35378 elapsed seconds
FIRE:Time      31.000 s Average wind           0.102E+01 m/s
FIRE:Time      31.000 s Maximum wind           0.102E+01 m/s
FIRE:Time      31.000 s Fire area              0.000E+00 m^2
FIRE:Time      31.000 s Heat output            0.000E+00 W
FIRE:Time      31.000 s Max heat flux          0.000E+00 W/m^2
FIRE:Time      31.000 s Latent heat output     0.000E+00 W
FIRE:Time      31.000 s Max latent heat flux   0.000E+00 W/m^2
Timing for main: time 0001-01-01_00:00:31 on domain   1:    1.32469 elapsed seconds
FIRE:Time      31.500 s Average wind           0.102E+01 m/s
FIRE:Time      31.500 s Maximum wind           0.102E+01 m/s
FIRE:Time      31.500 s Fire area              0.000E+00 m^2
FIRE:Time      31.500 s Heat output            0.000E+00 W
FIRE:Time      31.500 s Max heat flux          0.000E+00 W/m^2
FIRE:Time      31.500 s Latent heat output     0.000E+00 W
FIRE:Time      31.500 s Max latent heat flux   0.000E+00 W/m^2
Timing for main: time 0001-01-01_00:00:31 on domain   1:    1.32375 elapsed seconds
FIRE:Time      32.000 s Average wind           0.102E+01 m/s
FIRE:Time      32.000 s Maximum wind           0.102E+01 m/s
FIRE:Time      32.000 s Fire area              0.000E+00 m^2
FIRE:Time      32.000 s Heat output            0.000E+00 W
FIRE:Time      32.000 s Max heat flux          0.000E+00 W/m^2
FIRE:Time      32.000 s Latent heat output     0.000E+00 W
FIRE:Time      32.000 s Max latent heat flux   0.000E+00 W/m^2
Timing for main: time 0001-01-01_00:00:32 on domain   1:    1.32319 elapsed seconds
FIRE:Time      32.500 s Average wind           0.102E+01 m/s
FIRE:Time      32.500 s Maximum wind           0.102E+01 m/s
FIRE:Time      32.500 s Fire area              0.000E+00 m^2
FIRE:Time      32.500 s Heat output            0.000E+00 W
FIRE:Time      32.500 s Max heat flux          0.000E+00 W/m^2
FIRE:Time      32.500 s Latent heat output     0.000E+00 W
FIRE:Time      32.500 s Max latent heat flux   0.000E+00 W/m^2
Timing for main: time 0001-01-01_00:00:32 on domain   1:    1.32498 elapsed seconds
FIRE:Time      33.000 s Average wind           0.102E+01 m/s
FIRE:Time      33.000 s Maximum wind           0.102E+01 m/s
FIRE:Time      33.000 s Fire area              0.000E+00 m^2
FIRE:Time      33.000 s Heat output            0.000E+00 W
FIRE:Time      33.000 s Max heat flux          0.000E+00 W/m^2
FIRE:Time      33.000 s Latent heat output     0.000E+00 W
FIRE:Time      33.000 s Max latent heat flux   0.000E+00 W/m^2
Timing for main: time 0001-01-01_00:00:33 on domain   1:    1.32352 elapsed seconds
FIRE:Time      33.500 s Average wind           0.102E+01 m/s
FIRE:Time      33.500 s Maximum wind           0.102E+01 m/s
FIRE:Time      33.500 s Fire area              0.000E+00 m^2
FIRE:Time      33.500 s Heat output            0.000E+00 W
FIRE:Time      33.500 s Max heat flux          0.000E+00 W/m^2
FIRE:Time      33.500 s Latent heat output     0.000E+00 W
FIRE:Time      33.500 s Max latent heat flux   0.000E+00 W/m^2
Timing for main: time 0001-01-01_00:00:33 on domain   1:    1.32332 elapsed seconds
FIRE:Time      34.000 s Average wind           0.102E+01 m/s
FIRE:Time      34.000 s Maximum wind           0.102E+01 m/s
FIRE:Time      34.000 s Fire area              0.000E+00 m^2
FIRE:Time      34.000 s Heat output            0.000E+00 W
FIRE:Time      34.000 s Max heat flux          0.000E+00 W/m^2
FIRE:Time      34.000 s Latent heat output     0.000E+00 W
FIRE:Time      34.000 s Max latent heat flux   0.000E+00 W/m^2
Timing for main: time 0001-01-01_00:00:34 on domain   1:    1.32293 elapsed seconds
FIRE:Time      34.500 s Average wind           0.102E+01 m/s
FIRE:Time      34.500 s Maximum wind           0.102E+01 m/s
FIRE:Time      34.500 s Fire area              0.000E+00 m^2
FIRE:Time      34.500 s Heat output            0.000E+00 W
FIRE:Time      34.500 s Max heat flux          0.000E+00 W/m^2
FIRE:Time      34.500 s Latent heat output     0.000E+00 W
FIRE:Time      34.500 s Max latent heat flux   0.000E+00 W/m^2
Timing for main: time 0001-01-01_00:00:34 on domain   1:    1.34312 elapsed seconds
FIRE:Time      35.000 s Average wind           0.102E+01 m/s
FIRE:Time      35.000 s Maximum wind           0.102E+01 m/s
FIRE:Time      35.000 s Fire area              0.000E+00 m^2
FIRE:Time      35.000 s Heat output            0.000E+00 W
FIRE:Time      35.000 s Max heat flux          0.000E+00 W/m^2
FIRE:Time      35.000 s Latent heat output     0.000E+00 W
FIRE:Time      35.000 s Max latent heat flux   0.000E+00 W/m^2
Timing for main: time 0001-01-01_00:00:35 on domain   1:    1.32398 elapsed seconds
FIRE:Time      35.500 s Average wind           0.102E+01 m/s
FIRE:Time      35.500 s Maximum wind           0.102E+01 m/s
FIRE:Time      35.500 s Fire area              0.000E+00 m^2
FIRE:Time      35.500 s Heat output            0.000E+00 W
FIRE:Time      35.500 s Max heat flux          0.000E+00 W/m^2
FIRE:Time      35.500 s Latent heat output     0.000E+00 W
FIRE:Time      35.500 s Max latent heat flux   0.000E+00 W/m^2
Timing for main: time 0001-01-01_00:00:35 on domain   1:    1.32292 elapsed seconds
FIRE:Time      36.000 s Average wind           0.102E+01 m/s
FIRE:Time      36.000 s Maximum wind           0.102E+01 m/s
FIRE:Time      36.000 s Fire area              0.000E+00 m^2
FIRE:Time      36.000 s Heat output            0.000E+00 W
FIRE:Time      36.000 s Max heat flux          0.000E+00 W/m^2
FIRE:Time      36.000 s Latent heat output     0.000E+00 W
FIRE:Time      36.000 s Max latent heat flux   0.000E+00 W/m^2
Timing for main: time 0001-01-01_00:00:36 on domain   1:    1.32342 elapsed seconds
FIRE:Time      36.500 s Average wind           0.102E+01 m/s
FIRE:Time      36.500 s Maximum wind           0.102E+01 m/s
FIRE:Time      36.500 s Fire area              0.000E+00 m^2
FIRE:Time      36.500 s Heat output            0.000E+00 W
FIRE:Time      36.500 s Max heat flux          0.000E+00 W/m^2
FIRE:Time      36.500 s Latent heat output     0.000E+00 W
FIRE:Time      36.500 s Max latent heat flux   0.000E+00 W/m^2
Timing for main: time 0001-01-01_00:00:36 on domain   1:    1.32307 elapsed seconds
FIRE:Time      37.000 s Average wind           0.102E+01 m/s
FIRE:Time      37.000 s Maximum wind           0.102E+01 m/s
FIRE:Time      37.000 s Fire area              0.000E+00 m^2
FIRE:Time      37.000 s Heat output            0.000E+00 W
FIRE:Time      37.000 s Max heat flux          0.000E+00 W/m^2
FIRE:Time      37.000 s Latent heat output     0.000E+00 W
FIRE:Time      37.000 s Max latent heat flux   0.000E+00 W/m^2
Timing for main: time 0001-01-01_00:00:37 on domain   1:    1.32323 elapsed seconds
FIRE:Time      37.500 s Average wind           0.102E+01 m/s
FIRE:Time      37.500 s Maximum wind           0.102E+01 m/s
FIRE:Time      37.500 s Fire area              0.000E+00 m^2
FIRE:Time      37.500 s Heat output            0.000E+00 W
FIRE:Time      37.500 s Max heat flux          0.000E+00 W/m^2
FIRE:Time      37.500 s Latent heat output     0.000E+00 W
FIRE:Time      37.500 s Max latent heat flux   0.000E+00 W/m^2
Timing for main: time 0001-01-01_00:00:37 on domain   1:    1.32293 elapsed seconds
FIRE:Time      38.000 s Average wind           0.102E+01 m/s
FIRE:Time      38.000 s Maximum wind           0.102E+01 m/s
FIRE:Time      38.000 s Fire area              0.000E+00 m^2
FIRE:Time      38.000 s Heat output            0.000E+00 W
FIRE:Time      38.000 s Max heat flux          0.000E+00 W/m^2
FIRE:Time      38.000 s Latent heat output     0.000E+00 W
FIRE:Time      38.000 s Max latent heat flux   0.000E+00 W/m^2
Timing for main: time 0001-01-01_00:00:38 on domain   1:    1.32502 elapsed seconds
FIRE:Time      38.500 s Average wind           0.102E+01 m/s
FIRE:Time      38.500 s Maximum wind           0.102E+01 m/s
FIRE:Time      38.500 s Fire area              0.000E+00 m^2
FIRE:Time      38.500 s Heat output            0.000E+00 W
FIRE:Time      38.500 s Max heat flux          0.000E+00 W/m^2
FIRE:Time      38.500 s Latent heat output     0.000E+00 W
FIRE:Time      38.500 s Max latent heat flux   0.000E+00 W/m^2
Timing for main: time 0001-01-01_00:00:38 on domain   1:    1.33350 elapsed seconds
FIRE:Time      39.000 s Average wind           0.102E+01 m/s
FIRE:Time      39.000 s Maximum wind           0.102E+01 m/s
FIRE:Time      39.000 s Fire area              0.000E+00 m^2
FIRE:Time      39.000 s Heat output            0.000E+00 W
FIRE:Time      39.000 s Max heat flux          0.000E+00 W/m^2
FIRE:Time      39.000 s Latent heat output     0.000E+00 W
FIRE:Time      39.000 s Max latent heat flux   0.000E+00 W/m^2
Timing for main: time 0001-01-01_00:00:39 on domain   1:    1.32251 elapsed seconds
FIRE:Time      39.500 s Average wind           0.102E+01 m/s
FIRE:Time      39.500 s Maximum wind           0.102E+01 m/s
FIRE:Time      39.500 s Fire area              0.000E+00 m^2
FIRE:Time      39.500 s Heat output            0.000E+00 W
FIRE:Time      39.500 s Max heat flux          0.000E+00 W/m^2
FIRE:Time      39.500 s Latent heat output     0.000E+00 W
FIRE:Time      39.500 s Max latent heat flux   0.000E+00 W/m^2
Timing for main: time 0001-01-01_00:00:39 on domain   1:    1.32441 elapsed seconds
FIRE:Time      40.000 s Average wind           0.102E+01 m/s
FIRE:Time      40.000 s Maximum wind           0.102E+01 m/s
FIRE:Time      40.000 s Fire area              0.000E+00 m^2
FIRE:Time      40.000 s Heat output            0.000E+00 W
FIRE:Time      40.000 s Max heat flux          0.000E+00 W/m^2
FIRE:Time      40.000 s Latent heat output     0.000E+00 W
FIRE:Time      40.000 s Max latent heat flux   0.000E+00 W/m^2
Timing for main: time 0001-01-01_00:00:40 on domain   1:    1.32460 elapsed seconds
FIRE:Time      40.500 s Average wind           0.102E+01 m/s
FIRE:Time      40.500 s Maximum wind           0.102E+01 m/s
FIRE:Time      40.500 s Fire area              0.000E+00 m^2
FIRE:Time      40.500 s Heat output            0.000E+00 W
FIRE:Time      40.500 s Max heat flux          0.000E+00 W/m^2
FIRE:Time      40.500 s Latent heat output     0.000E+00 W
FIRE:Time      40.500 s Max latent heat flux   0.000E+00 W/m^2
Timing for main: time 0001-01-01_00:00:40 on domain   1:    1.32471 elapsed seconds
FIRE:Time      41.000 s Average wind           0.102E+01 m/s
FIRE:Time      41.000 s Maximum wind           0.102E+01 m/s
FIRE:Time      41.000 s Fire area              0.000E+00 m^2
FIRE:Time      41.000 s Heat output            0.000E+00 W
FIRE:Time      41.000 s Max heat flux          0.000E+00 W/m^2
FIRE:Time      41.000 s Latent heat output     0.000E+00 W
FIRE:Time      41.000 s Max latent heat flux   0.000E+00 W/m^2
Timing for main: time 0001-01-01_00:00:41 on domain   1:    1.32531 elapsed seconds
FIRE:Time      41.500 s Average wind           0.102E+01 m/s
FIRE:Time      41.500 s Maximum wind           0.102E+01 m/s
FIRE:Time      41.500 s Fire area              0.000E+00 m^2
FIRE:Time      41.500 s Heat output            0.000E+00 W
FIRE:Time      41.500 s Max heat flux          0.000E+00 W/m^2
FIRE:Time      41.500 s Latent heat output     0.000E+00 W
FIRE:Time      41.500 s Max latent heat flux   0.000E+00 W/m^2
Timing for main: time 0001-01-01_00:00:41 on domain   1:    1.38338 elapsed seconds
FIRE:Time      42.000 s Average wind           0.102E+01 m/s
FIRE:Time      42.000 s Maximum wind           0.102E+01 m/s
FIRE:Time      42.000 s Fire area              0.000E+00 m^2
FIRE:Time      42.000 s Heat output            0.000E+00 W
FIRE:Time      42.000 s Max heat flux          0.000E+00 W/m^2
FIRE:Time      42.000 s Latent heat output     0.000E+00 W
FIRE:Time      42.000 s Max latent heat flux   0.000E+00 W/m^2
Timing for main: time 0001-01-01_00:00:42 on domain   1:    1.32313 elapsed seconds
FIRE:Time      42.500 s Average wind           0.102E+01 m/s
FIRE:Time      42.500 s Maximum wind           0.102E+01 m/s
FIRE:Time      42.500 s Fire area              0.000E+00 m^2
FIRE:Time      42.500 s Heat output            0.000E+00 W
FIRE:Time      42.500 s Max heat flux          0.000E+00 W/m^2
FIRE:Time      42.500 s Latent heat output     0.000E+00 W
FIRE:Time      42.500 s Max latent heat flux   0.000E+00 W/m^2
Timing for main: time 0001-01-01_00:00:42 on domain   1:    1.33949 elapsed seconds
FIRE:Time      43.000 s Average wind           0.102E+01 m/s
FIRE:Time      43.000 s Maximum wind           0.102E+01 m/s
FIRE:Time      43.000 s Fire area              0.000E+00 m^2
FIRE:Time      43.000 s Heat output            0.000E+00 W
FIRE:Time      43.000 s Max heat flux          0.000E+00 W/m^2
FIRE:Time      43.000 s Latent heat output     0.000E+00 W
FIRE:Time      43.000 s Max latent heat flux   0.000E+00 W/m^2
Timing for main: time 0001-01-01_00:00:43 on domain   1:    1.37162 elapsed seconds
FIRE:Time      43.500 s Average wind           0.102E+01 m/s
FIRE:Time      43.500 s Maximum wind           0.102E+01 m/s
FIRE:Time      43.500 s Fire area              0.000E+00 m^2
FIRE:Time      43.500 s Heat output            0.000E+00 W
FIRE:Time      43.500 s Max heat flux          0.000E+00 W/m^2
FIRE:Time      43.500 s Latent heat output     0.000E+00 W
FIRE:Time      43.500 s Max latent heat flux   0.000E+00 W/m^2
Timing for main: time 0001-01-01_00:00:43 on domain   1:    1.32404 elapsed seconds
FIRE:Time      44.000 s Average wind           0.102E+01 m/s
FIRE:Time      44.000 s Maximum wind           0.102E+01 m/s
FIRE:Time      44.000 s Fire area              0.000E+00 m^2
FIRE:Time      44.000 s Heat output            0.000E+00 W
FIRE:Time      44.000 s Max heat flux          0.000E+00 W/m^2
FIRE:Time      44.000 s Latent heat output     0.000E+00 W
FIRE:Time      44.000 s Max latent heat flux   0.000E+00 W/m^2
Timing for main: time 0001-01-01_00:00:44 on domain   1:    1.32346 elapsed seconds
FIRE:Time      44.500 s Average wind           0.102E+01 m/s
FIRE:Time      44.500 s Maximum wind           0.102E+01 m/s
FIRE:Time      44.500 s Fire area              0.000E+00 m^2
FIRE:Time      44.500 s Heat output            0.000E+00 W
FIRE:Time      44.500 s Max heat flux          0.000E+00 W/m^2
FIRE:Time      44.500 s Latent heat output     0.000E+00 W
FIRE:Time      44.500 s Max latent heat flux   0.000E+00 W/m^2
Timing for main: time 0001-01-01_00:00:44 on domain   1:    1.32344 elapsed seconds
FIRE:Time      45.000 s Average wind           0.102E+01 m/s
FIRE:Time      45.000 s Maximum wind           0.102E+01 m/s
FIRE:Time      45.000 s Fire area              0.000E+00 m^2
FIRE:Time      45.000 s Heat output            0.000E+00 W
FIRE:Time      45.000 s Max heat flux          0.000E+00 W/m^2
FIRE:Time      45.000 s Latent heat output     0.000E+00 W
FIRE:Time      45.000 s Max latent heat flux   0.000E+00 W/m^2
Timing for main: time 0001-01-01_00:00:45 on domain   1:    1.34374 elapsed seconds
FIRE:Time      45.500 s Average wind           0.102E+01 m/s
FIRE:Time      45.500 s Maximum wind           0.102E+01 m/s
FIRE:Time      45.500 s Fire area              0.000E+00 m^2
FIRE:Time      45.500 s Heat output            0.000E+00 W
FIRE:Time      45.500 s Max heat flux          0.000E+00 W/m^2
FIRE:Time      45.500 s Latent heat output     0.000E+00 W
FIRE:Time      45.500 s Max latent heat flux   0.000E+00 W/m^2
Timing for main: time 0001-01-01_00:00:45 on domain   1:    1.32359 elapsed seconds
FIRE:Time      46.000 s Average wind           0.102E+01 m/s
FIRE:Time      46.000 s Maximum wind           0.102E+01 m/s
FIRE:Time      46.000 s Fire area              0.000E+00 m^2
FIRE:Time      46.000 s Heat output            0.000E+00 W
FIRE:Time      46.000 s Max heat flux          0.000E+00 W/m^2
FIRE:Time      46.000 s Latent heat output     0.000E+00 W
FIRE:Time      46.000 s Max latent heat flux   0.000E+00 W/m^2
Timing for main: time 0001-01-01_00:00:46 on domain   1:    1.32359 elapsed seconds
FIRE:Time      46.500 s Average wind           0.102E+01 m/s
FIRE:Time      46.500 s Maximum wind           0.102E+01 m/s
FIRE:Time      46.500 s Fire area              0.000E+00 m^2
FIRE:Time      46.500 s Heat output            0.000E+00 W
FIRE:Time      46.500 s Max heat flux          0.000E+00 W/m^2
FIRE:Time      46.500 s Latent heat output     0.000E+00 W
FIRE:Time      46.500 s Max latent heat flux   0.000E+00 W/m^2
Timing for main: time 0001-01-01_00:00:46 on domain   1:    1.42929 elapsed seconds
FIRE:Time      47.000 s Average wind           0.102E+01 m/s
FIRE:Time      47.000 s Maximum wind           0.102E+01 m/s
FIRE:Time      47.000 s Fire area              0.000E+00 m^2
FIRE:Time      47.000 s Heat output            0.000E+00 W
FIRE:Time      47.000 s Max heat flux          0.000E+00 W/m^2
FIRE:Time      47.000 s Latent heat output     0.000E+00 W
FIRE:Time      47.000 s Max latent heat flux   0.000E+00 W/m^2
Timing for main: time 0001-01-01_00:00:47 on domain   1:    1.32446 elapsed seconds
FIRE:Time      47.500 s Average wind           0.102E+01 m/s
FIRE:Time      47.500 s Maximum wind           0.102E+01 m/s
FIRE:Time      47.500 s Fire area              0.000E+00 m^2
FIRE:Time      47.500 s Heat output            0.000E+00 W
FIRE:Time      47.500 s Max heat flux          0.000E+00 W/m^2
FIRE:Time      47.500 s Latent heat output     0.000E+00 W
FIRE:Time      47.500 s Max latent heat flux   0.000E+00 W/m^2
Timing for main: time 0001-01-01_00:00:47 on domain   1:    1.32371 elapsed seconds
FIRE:Time      48.000 s Average wind           0.102E+01 m/s
FIRE:Time      48.000 s Maximum wind           0.102E+01 m/s
FIRE:Time      48.000 s Fire area              0.000E+00 m^2
FIRE:Time      48.000 s Heat output            0.000E+00 W
FIRE:Time      48.000 s Max heat flux          0.000E+00 W/m^2
FIRE:Time      48.000 s Latent heat output     0.000E+00 W
FIRE:Time      48.000 s Max latent heat flux   0.000E+00 W/m^2
Timing for main: time 0001-01-01_00:00:48 on domain   1:    1.32561 elapsed seconds
FIRE:Time      48.500 s Average wind           0.102E+01 m/s
FIRE:Time      48.500 s Maximum wind           0.102E+01 m/s
FIRE:Time      48.500 s Fire area              0.000E+00 m^2
FIRE:Time      48.500 s Heat output            0.000E+00 W
FIRE:Time      48.500 s Max heat flux          0.000E+00 W/m^2
FIRE:Time      48.500 s Latent heat output     0.000E+00 W
FIRE:Time      48.500 s Max latent heat flux   0.000E+00 W/m^2
Timing for main: time 0001-01-01_00:00:48 on domain   1:    1.36728 elapsed seconds
FIRE:Time      49.000 s Average wind           0.102E+01 m/s
FIRE:Time      49.000 s Maximum wind           0.102E+01 m/s
FIRE:Time      49.000 s Fire area              0.000E+00 m^2
FIRE:Time      49.000 s Heat output            0.000E+00 W
FIRE:Time      49.000 s Max heat flux          0.000E+00 W/m^2
FIRE:Time      49.000 s Latent heat output     0.000E+00 W
FIRE:Time      49.000 s Max latent heat flux   0.000E+00 W/m^2
Timing for main: time 0001-01-01_00:00:49 on domain   1:    1.32309 elapsed seconds
FIRE:Time      49.500 s Average wind           0.102E+01 m/s
FIRE:Time      49.500 s Maximum wind           0.102E+01 m/s
FIRE:Time      49.500 s Fire area              0.000E+00 m^2
FIRE:Time      49.500 s Heat output            0.000E+00 W
FIRE:Time      49.500 s Max heat flux          0.000E+00 W/m^2
FIRE:Time      49.500 s Latent heat output     0.000E+00 W
FIRE:Time      49.500 s Max latent heat flux   0.000E+00 W/m^2
Timing for main: time 0001-01-01_00:00:49 on domain   1:    1.32415 elapsed seconds
FIRE:Time      50.000 s Average wind           0.102E+01 m/s
FIRE:Time      50.000 s Maximum wind           0.102E+01 m/s
FIRE:Time      50.000 s Fire area              0.000E+00 m^2
FIRE:Time      50.000 s Heat output            0.000E+00 W
FIRE:Time      50.000 s Max heat flux          0.000E+00 W/m^2
FIRE:Time      50.000 s Latent heat output     0.000E+00 W
FIRE:Time      50.000 s Max latent heat flux   0.000E+00 W/m^2
Timing for main: time 0001-01-01_00:00:50 on domain   1:    1.43098 elapsed seconds
FIRE:Time      50.500 s Average wind           0.102E+01 m/s
FIRE:Time      50.500 s Maximum wind           0.102E+01 m/s
FIRE:Time      50.500 s Fire area              0.000E+00 m^2
FIRE:Time      50.500 s Heat output            0.000E+00 W
FIRE:Time      50.500 s Max heat flux          0.000E+00 W/m^2
FIRE:Time      50.500 s Latent heat output     0.000E+00 W
FIRE:Time      50.500 s Max latent heat flux   0.000E+00 W/m^2
Timing for main: time 0001-01-01_00:00:50 on domain   1:    1.33687 elapsed seconds
FIRE:Time      51.000 s Average wind           0.102E+01 m/s
FIRE:Time      51.000 s Maximum wind           0.102E+01 m/s
FIRE:Time      51.000 s Fire area              0.000E+00 m^2
FIRE:Time      51.000 s Heat output            0.000E+00 W
FIRE:Time      51.000 s Max heat flux          0.000E+00 W/m^2
FIRE:Time      51.000 s Latent heat output     0.000E+00 W
FIRE:Time      51.000 s Max latent heat flux   0.000E+00 W/m^2
Timing for main: time 0001-01-01_00:00:51 on domain   1:    1.32388 elapsed seconds
FIRE:Time      51.500 s Average wind           0.102E+01 m/s
FIRE:Time      51.500 s Maximum wind           0.102E+01 m/s
FIRE:Time      51.500 s Fire area              0.000E+00 m^2
FIRE:Time      51.500 s Heat output            0.000E+00 W
FIRE:Time      51.500 s Max heat flux          0.000E+00 W/m^2
FIRE:Time      51.500 s Latent heat output     0.000E+00 W
FIRE:Time      51.500 s Max latent heat flux   0.000E+00 W/m^2
Timing for main: time 0001-01-01_00:00:51 on domain   1:    1.32350 elapsed seconds
FIRE:Time      52.000 s Average wind           0.102E+01 m/s
FIRE:Time      52.000 s Maximum wind           0.102E+01 m/s
FIRE:Time      52.000 s Fire area              0.000E+00 m^2
FIRE:Time      52.000 s Heat output            0.000E+00 W
FIRE:Time      52.000 s Max heat flux          0.000E+00 W/m^2
FIRE:Time      52.000 s Latent heat output     0.000E+00 W
FIRE:Time      52.000 s Max latent heat flux   0.000E+00 W/m^2
Timing for main: time 0001-01-01_00:00:52 on domain   1:    1.33467 elapsed seconds
FIRE:Time      52.500 s Average wind           0.102E+01 m/s
FIRE:Time      52.500 s Maximum wind           0.102E+01 m/s
FIRE:Time      52.500 s Fire area              0.000E+00 m^2
FIRE:Time      52.500 s Heat output            0.000E+00 W
FIRE:Time      52.500 s Max heat flux          0.000E+00 W/m^2
FIRE:Time      52.500 s Latent heat output     0.000E+00 W
FIRE:Time      52.500 s Max latent heat flux   0.000E+00 W/m^2
Timing for main: time 0001-01-01_00:00:52 on domain   1:    1.32336 elapsed seconds
FIRE:Time      53.000 s Average wind           0.102E+01 m/s
FIRE:Time      53.000 s Maximum wind           0.102E+01 m/s
FIRE:Time      53.000 s Fire area              0.000E+00 m^2
FIRE:Time      53.000 s Heat output            0.000E+00 W
FIRE:Time      53.000 s Max heat flux          0.000E+00 W/m^2
FIRE:Time      53.000 s Latent heat output     0.000E+00 W
FIRE:Time      53.000 s Max latent heat flux   0.000E+00 W/m^2
Timing for main: time 0001-01-01_00:00:53 on domain   1:    1.32519 elapsed seconds
FIRE:Time      53.500 s Average wind           0.102E+01 m/s
FIRE:Time      53.500 s Maximum wind           0.102E+01 m/s
FIRE:Time      53.500 s Fire area              0.000E+00 m^2
FIRE:Time      53.500 s Heat output            0.000E+00 W
FIRE:Time      53.500 s Max heat flux          0.000E+00 W/m^2
FIRE:Time      53.500 s Latent heat output     0.000E+00 W
FIRE:Time      53.500 s Max latent heat flux   0.000E+00 W/m^2
Timing for main: time 0001-01-01_00:00:53 on domain   1:    1.37733 elapsed seconds
FIRE:Time      54.000 s Average wind           0.102E+01 m/s
FIRE:Time      54.000 s Maximum wind           0.102E+01 m/s
FIRE:Time      54.000 s Fire area              0.000E+00 m^2
FIRE:Time      54.000 s Heat output            0.000E+00 W
FIRE:Time      54.000 s Max heat flux          0.000E+00 W/m^2
FIRE:Time      54.000 s Latent heat output     0.000E+00 W
FIRE:Time      54.000 s Max latent heat flux   0.000E+00 W/m^2
Timing for main: time 0001-01-01_00:00:54 on domain   1:    1.32350 elapsed seconds
FIRE:Time      54.500 s Average wind           0.102E+01 m/s
FIRE:Time      54.500 s Maximum wind           0.102E+01 m/s
FIRE:Time      54.500 s Fire area              0.000E+00 m^2
FIRE:Time      54.500 s Heat output            0.000E+00 W
FIRE:Time      54.500 s Max heat flux          0.000E+00 W/m^2
FIRE:Time      54.500 s Latent heat output     0.000E+00 W
FIRE:Time      54.500 s Max latent heat flux   0.000E+00 W/m^2
Timing for main: time 0001-01-01_00:00:54 on domain   1:    1.33548 elapsed seconds
FIRE:Time      55.000 s Average wind           0.102E+01 m/s
FIRE:Time      55.000 s Maximum wind           0.102E+01 m/s
FIRE:Time      55.000 s Fire area              0.000E+00 m^2
FIRE:Time      55.000 s Heat output            0.000E+00 W
FIRE:Time      55.000 s Max heat flux          0.000E+00 W/m^2
FIRE:Time      55.000 s Latent heat output     0.000E+00 W
FIRE:Time      55.000 s Max latent heat flux   0.000E+00 W/m^2
Timing for main: time 0001-01-01_00:00:55 on domain   1:    1.32298 elapsed seconds
FIRE:Time      55.500 s Average wind           0.102E+01 m/s
FIRE:Time      55.500 s Maximum wind           0.102E+01 m/s
FIRE:Time      55.500 s Fire area              0.000E+00 m^2
FIRE:Time      55.500 s Heat output            0.000E+00 W
FIRE:Time      55.500 s Max heat flux          0.000E+00 W/m^2
FIRE:Time      55.500 s Latent heat output     0.000E+00 W
FIRE:Time      55.500 s Max latent heat flux   0.000E+00 W/m^2
Timing for main: time 0001-01-01_00:00:55 on domain   1:    1.32363 elapsed seconds
FIRE:Time      56.000 s Average wind           0.102E+01 m/s
FIRE:Time      56.000 s Maximum wind           0.102E+01 m/s
FIRE:Time      56.000 s Fire area              0.000E+00 m^2
FIRE:Time      56.000 s Heat output            0.000E+00 W
FIRE:Time      56.000 s Max heat flux          0.000E+00 W/m^2
FIRE:Time      56.000 s Latent heat output     0.000E+00 W
FIRE:Time      56.000 s Max latent heat flux   0.000E+00 W/m^2
Timing for main: time 0001-01-01_00:00:56 on domain   1:    1.32353 elapsed seconds
FIRE:Time      56.500 s Average wind           0.102E+01 m/s
FIRE:Time      56.500 s Maximum wind           0.102E+01 m/s
FIRE:Time      56.500 s Fire area              0.000E+00 m^2
FIRE:Time      56.500 s Heat output            0.000E+00 W
FIRE:Time      56.500 s Max heat flux          0.000E+00 W/m^2
FIRE:Time      56.500 s Latent heat output     0.000E+00 W
FIRE:Time      56.500 s Max latent heat flux   0.000E+00 W/m^2
Timing for main: time 0001-01-01_00:00:56 on domain   1:    1.32287 elapsed seconds
FIRE:Time      57.000 s Average wind           0.102E+01 m/s
FIRE:Time      57.000 s Maximum wind           0.102E+01 m/s
FIRE:Time      57.000 s Fire area              0.000E+00 m^2
FIRE:Time      57.000 s Heat output            0.000E+00 W
FIRE:Time      57.000 s Max heat flux          0.000E+00 W/m^2
FIRE:Time      57.000 s Latent heat output     0.000E+00 W
FIRE:Time      57.000 s Max latent heat flux   0.000E+00 W/m^2
Timing for main: time 0001-01-01_00:00:57 on domain   1:    1.32437 elapsed seconds
FIRE:Time      57.500 s Average wind           0.102E+01 m/s
FIRE:Time      57.500 s Maximum wind           0.102E+01 m/s
FIRE:Time      57.500 s Fire area              0.000E+00 m^2
FIRE:Time      57.500 s Heat output            0.000E+00 W
FIRE:Time      57.500 s Max heat flux          0.000E+00 W/m^2
FIRE:Time      57.500 s Latent heat output     0.000E+00 W
FIRE:Time      57.500 s Max latent heat flux   0.000E+00 W/m^2
Timing for main: time 0001-01-01_00:00:57 on domain   1:    1.32501 elapsed seconds
FIRE:Time      58.000 s Average wind           0.102E+01 m/s
FIRE:Time      58.000 s Maximum wind           0.102E+01 m/s
FIRE:Time      58.000 s Fire area              0.000E+00 m^2
FIRE:Time      58.000 s Heat output            0.000E+00 W
FIRE:Time      58.000 s Max heat flux          0.000E+00 W/m^2
FIRE:Time      58.000 s Latent heat output     0.000E+00 W
FIRE:Time      58.000 s Max latent heat flux   0.000E+00 W/m^2
Timing for main: time 0001-01-01_00:00:58 on domain   1:    1.32440 elapsed seconds
FIRE:Time      58.500 s Average wind           0.102E+01 m/s
FIRE:Time      58.500 s Maximum wind           0.102E+01 m/s
FIRE:Time      58.500 s Fire area              0.000E+00 m^2
FIRE:Time      58.500 s Heat output            0.000E+00 W
FIRE:Time      58.500 s Max heat flux          0.000E+00 W/m^2
FIRE:Time      58.500 s Latent heat output     0.000E+00 W
FIRE:Time      58.500 s Max latent heat flux   0.000E+00 W/m^2
Timing for main: time 0001-01-01_00:00:58 on domain   1:    1.33263 elapsed seconds
FIRE:Time      59.000 s Average wind           0.102E+01 m/s
FIRE:Time      59.000 s Maximum wind           0.102E+01 m/s
FIRE:Time      59.000 s Fire area              0.000E+00 m^2
FIRE:Time      59.000 s Heat output            0.000E+00 W
FIRE:Time      59.000 s Max heat flux          0.000E+00 W/m^2
FIRE:Time      59.000 s Latent heat output     0.000E+00 W
FIRE:Time      59.000 s Max latent heat flux   0.000E+00 W/m^2
Timing for main: time 0001-01-01_00:00:59 on domain   1:    1.32436 elapsed seconds
FIRE:Time      59.500 s Average wind           0.102E+01 m/s
FIRE:Time      59.500 s Maximum wind           0.102E+01 m/s
FIRE:Time      59.500 s Fire area              0.000E+00 m^2
FIRE:Time      59.500 s Heat output            0.000E+00 W
FIRE:Time      59.500 s Max heat flux          0.000E+00 W/m^2
FIRE:Time      59.500 s Latent heat output     0.000E+00 W
FIRE:Time      59.500 s Max latent heat flux   0.000E+00 W/m^2
Timing for main: time 0001-01-01_00:00:59 on domain   1:    1.32417 elapsed seconds
FIRE:Time      60.000 s Average wind           0.102E+01 m/s
FIRE:Time      60.000 s Maximum wind           0.102E+01 m/s
FIRE:Time      60.000 s Fire area              0.000E+00 m^2
FIRE:Time      60.000 s Heat output            0.000E+00 W
FIRE:Time      60.000 s Max heat flux          0.000E+00 W/m^2
FIRE:Time      60.000 s Latent heat output     0.000E+00 W
FIRE:Time      60.000 s Max latent heat flux   0.000E+00 W/m^2
Timing for main: time 0001-01-01_00:01:00 on domain   1:    1.32365 elapsed seconds
FIRE:Time      60.500 s Average wind           0.102E+01 m/s
FIRE:Time      60.500 s Maximum wind           0.102E+01 m/s
FIRE:Time      60.500 s Fire area              0.000E+00 m^2
FIRE:Time      60.500 s Heat output            0.000E+00 W
FIRE:Time      60.500 s Max heat flux          0.000E+00 W/m^2
FIRE:Time      60.500 s Latent heat output     0.000E+00 W
FIRE:Time      60.500 s Max latent heat flux   0.000E+00 W/m^2
Timing for main: time 0001-01-01_00:01:00 on domain   1:    1.37003 elapsed seconds
FIRE:Time      61.000 s Average wind           0.102E+01 m/s
FIRE:Time      61.000 s Maximum wind           0.102E+01 m/s
FIRE:Time      61.000 s Fire area              0.000E+00 m^2
FIRE:Time      61.000 s Heat output            0.000E+00 W
FIRE:Time      61.000 s Max heat flux          0.000E+00 W/m^2
FIRE:Time      61.000 s Latent heat output     0.000E+00 W
FIRE:Time      61.000 s Max latent heat flux   0.000E+00 W/m^2
Timing for main: time 0001-01-01_00:01:01 on domain   1:    1.32353 elapsed seconds
FIRE:Time      61.500 s Average wind           0.102E+01 m/s
FIRE:Time      61.500 s Maximum wind           0.102E+01 m/s
FIRE:Time      61.500 s Fire area              0.000E+00 m^2
FIRE:Time      61.500 s Heat output            0.000E+00 W
FIRE:Time      61.500 s Max heat flux          0.000E+00 W/m^2
FIRE:Time      61.500 s Latent heat output     0.000E+00 W
FIRE:Time      61.500 s Max latent heat flux   0.000E+00 W/m^2
Timing for main: time 0001-01-01_00:01:01 on domain   1:    1.32343 elapsed seconds
FIRE:Time      62.000 s Average wind           0.102E+01 m/s
FIRE:Time      62.000 s Maximum wind           0.102E+01 m/s
FIRE:Time      62.000 s Fire area              0.000E+00 m^2
FIRE:Time      62.000 s Heat output            0.000E+00 W
FIRE:Time      62.000 s Max heat flux          0.000E+00 W/m^2
FIRE:Time      62.000 s Latent heat output     0.000E+00 W
FIRE:Time      62.000 s Max latent heat flux   0.000E+00 W/m^2
Timing for main: time 0001-01-01_00:01:02 on domain   1:    1.32547 elapsed seconds
FIRE:Time      62.500 s Average wind           0.102E+01 m/s
FIRE:Time      62.500 s Maximum wind           0.102E+01 m/s
FIRE:Time      62.500 s Fire area              0.000E+00 m^2
FIRE:Time      62.500 s Heat output            0.000E+00 W
FIRE:Time      62.500 s Max heat flux          0.000E+00 W/m^2
FIRE:Time      62.500 s Latent heat output     0.000E+00 W
FIRE:Time      62.500 s Max latent heat flux   0.000E+00 W/m^2
Timing for main: time 0001-01-01_00:01:02 on domain   1:    1.36671 elapsed seconds
FIRE:Time      63.000 s Average wind           0.102E+01 m/s
FIRE:Time      63.000 s Maximum wind           0.102E+01 m/s
FIRE:Time      63.000 s Fire area              0.000E+00 m^2
FIRE:Time      63.000 s Heat output            0.000E+00 W
FIRE:Time      63.000 s Max heat flux          0.000E+00 W/m^2
FIRE:Time      63.000 s Latent heat output     0.000E+00 W
FIRE:Time      63.000 s Max latent heat flux   0.000E+00 W/m^2
Timing for main: time 0001-01-01_00:01:03 on domain   1:    1.32257 elapsed seconds
FIRE:Time      63.500 s Average wind           0.102E+01 m/s
FIRE:Time      63.500 s Maximum wind           0.102E+01 m/s
FIRE:Time      63.500 s Fire area              0.000E+00 m^2
FIRE:Time      63.500 s Heat output            0.000E+00 W
FIRE:Time      63.500 s Max heat flux          0.000E+00 W/m^2
FIRE:Time      63.500 s Latent heat output     0.000E+00 W
FIRE:Time      63.500 s Max latent heat flux   0.000E+00 W/m^2
Timing for main: time 0001-01-01_00:01:03 on domain   1:    1.32277 elapsed seconds
FIRE:Time      64.000 s Average wind           0.102E+01 m/s
FIRE:Time      64.000 s Maximum wind           0.102E+01 m/s
FIRE:Time      64.000 s Fire area              0.000E+00 m^2
FIRE:Time      64.000 s Heat output            0.000E+00 W
FIRE:Time      64.000 s Max heat flux          0.000E+00 W/m^2
FIRE:Time      64.000 s Latent heat output     0.000E+00 W
FIRE:Time      64.000 s Max latent heat flux   0.000E+00 W/m^2
Timing for main: time 0001-01-01_00:01:04 on domain   1:    1.32287 elapsed seconds
FIRE:Time      64.500 s Average wind           0.102E+01 m/s
FIRE:Time      64.500 s Maximum wind           0.102E+01 m/s
FIRE:Time      64.500 s Fire area              0.000E+00 m^2
FIRE:Time      64.500 s Heat output            0.000E+00 W
FIRE:Time      64.500 s Max heat flux          0.000E+00 W/m^2
FIRE:Time      64.500 s Latent heat output     0.000E+00 W
FIRE:Time      64.500 s Max latent heat flux   0.000E+00 W/m^2
Timing for main: time 0001-01-01_00:01:04 on domain   1:    1.32452 elapsed seconds
FIRE:Time      65.000 s Average wind           0.102E+01 m/s
FIRE:Time      65.000 s Maximum wind           0.102E+01 m/s
FIRE:Time      65.000 s Fire area              0.000E+00 m^2
FIRE:Time      65.000 s Heat output            0.000E+00 W
FIRE:Time      65.000 s Max heat flux          0.000E+00 W/m^2
FIRE:Time      65.000 s Latent heat output     0.000E+00 W
FIRE:Time      65.000 s Max latent heat flux   0.000E+00 W/m^2
Timing for main: time 0001-01-01_00:01:05 on domain   1:    1.32497 elapsed seconds
FIRE:Time      65.500 s Average wind           0.102E+01 m/s
FIRE:Time      65.500 s Maximum wind           0.102E+01 m/s
FIRE:Time      65.500 s Fire area              0.000E+00 m^2
FIRE:Time      65.500 s Heat output            0.000E+00 W
FIRE:Time      65.500 s Max heat flux          0.000E+00 W/m^2
FIRE:Time      65.500 s Latent heat output     0.000E+00 W
FIRE:Time      65.500 s Max latent heat flux   0.000E+00 W/m^2
Timing for main: time 0001-01-01_00:01:05 on domain   1:    1.32312 elapsed seconds
FIRE:Time      66.000 s Average wind           0.102E+01 m/s
FIRE:Time      66.000 s Maximum wind           0.102E+01 m/s
FIRE:Time      66.000 s Fire area              0.000E+00 m^2
FIRE:Time      66.000 s Heat output            0.000E+00 W
FIRE:Time      66.000 s Max heat flux          0.000E+00 W/m^2
FIRE:Time      66.000 s Latent heat output     0.000E+00 W
FIRE:Time      66.000 s Max latent heat flux   0.000E+00 W/m^2
Timing for main: time 0001-01-01_00:01:06 on domain   1:    1.39894 elapsed seconds
FIRE:Time      66.500 s Average wind           0.102E+01 m/s
FIRE:Time      66.500 s Maximum wind           0.102E+01 m/s
FIRE:Time      66.500 s Fire area              0.000E+00 m^2
FIRE:Time      66.500 s Heat output            0.000E+00 W
FIRE:Time      66.500 s Max heat flux          0.000E+00 W/m^2
FIRE:Time      66.500 s Latent heat output     0.000E+00 W
FIRE:Time      66.500 s Max latent heat flux   0.000E+00 W/m^2
Timing for main: time 0001-01-01_00:01:06 on domain   1:    1.33476 elapsed seconds
FIRE:Time      67.000 s Average wind           0.102E+01 m/s
FIRE:Time      67.000 s Maximum wind           0.102E+01 m/s
FIRE:Time      67.000 s Fire area              0.000E+00 m^2
FIRE:Time      67.000 s Heat output            0.000E+00 W
FIRE:Time      67.000 s Max heat flux          0.000E+00 W/m^2
FIRE:Time      67.000 s Latent heat output     0.000E+00 W
FIRE:Time      67.000 s Max latent heat flux   0.000E+00 W/m^2
Timing for main: time 0001-01-01_00:01:07 on domain   1:    1.32382 elapsed seconds
FIRE:Time      67.500 s Average wind           0.102E+01 m/s
FIRE:Time      67.500 s Maximum wind           0.102E+01 m/s
FIRE:Time      67.500 s Fire area              0.000E+00 m^2
FIRE:Time      67.500 s Heat output            0.000E+00 W
FIRE:Time      67.500 s Max heat flux          0.000E+00 W/m^2
FIRE:Time      67.500 s Latent heat output     0.000E+00 W
FIRE:Time      67.500 s Max latent heat flux   0.000E+00 W/m^2
Timing for main: time 0001-01-01_00:01:07 on domain   1:    1.32436 elapsed seconds
FIRE:Time      68.000 s Average wind           0.102E+01 m/s
FIRE:Time      68.000 s Maximum wind           0.102E+01 m/s
FIRE:Time      68.000 s Fire area              0.000E+00 m^2
FIRE:Time      68.000 s Heat output            0.000E+00 W
FIRE:Time      68.000 s Max heat flux          0.000E+00 W/m^2
FIRE:Time      68.000 s Latent heat output     0.000E+00 W
FIRE:Time      68.000 s Max latent heat flux   0.000E+00 W/m^2
Timing for main: time 0001-01-01_00:01:08 on domain   1:    1.32281 elapsed seconds
FIRE:Time      68.500 s Average wind           0.102E+01 m/s
FIRE:Time      68.500 s Maximum wind           0.102E+01 m/s
FIRE:Time      68.500 s Fire area              0.000E+00 m^2
FIRE:Time      68.500 s Heat output            0.000E+00 W
FIRE:Time      68.500 s Max heat flux          0.000E+00 W/m^2
FIRE:Time      68.500 s Latent heat output     0.000E+00 W
FIRE:Time      68.500 s Max latent heat flux   0.000E+00 W/m^2
Timing for main: time 0001-01-01_00:01:08 on domain   1:    1.32376 elapsed seconds
FIRE:Time      69.000 s Average wind           0.102E+01 m/s
FIRE:Time      69.000 s Maximum wind           0.102E+01 m/s
FIRE:Time      69.000 s Fire area              0.000E+00 m^2
FIRE:Time      69.000 s Heat output            0.000E+00 W
FIRE:Time      69.000 s Max heat flux          0.000E+00 W/m^2
FIRE:Time      69.000 s Latent heat output     0.000E+00 W
FIRE:Time      69.000 s Max latent heat flux   0.000E+00 W/m^2
Timing for main: time 0001-01-01_00:01:09 on domain   1:    1.32310 elapsed seconds
FIRE:Time      69.500 s Average wind           0.102E+01 m/s
FIRE:Time      69.500 s Maximum wind           0.102E+01 m/s
FIRE:Time      69.500 s Fire area              0.000E+00 m^2
FIRE:Time      69.500 s Heat output            0.000E+00 W
FIRE:Time      69.500 s Max heat flux          0.000E+00 W/m^2
FIRE:Time      69.500 s Latent heat output     0.000E+00 W
FIRE:Time      69.500 s Max latent heat flux   0.000E+00 W/m^2
Timing for main: time 0001-01-01_00:01:09 on domain   1:    1.32420 elapsed seconds
FIRE:Time      70.000 s Average wind           0.102E+01 m/s
FIRE:Time      70.000 s Maximum wind           0.102E+01 m/s
FIRE:Time      70.000 s Fire area              0.000E+00 m^2
FIRE:Time      70.000 s Heat output            0.000E+00 W
FIRE:Time      70.000 s Max heat flux          0.000E+00 W/m^2
FIRE:Time      70.000 s Latent heat output     0.000E+00 W
FIRE:Time      70.000 s Max latent heat flux   0.000E+00 W/m^2
Timing for main: time 0001-01-01_00:01:10 on domain   1:    1.32280 elapsed seconds
FIRE:Time      70.500 s Average wind           0.102E+01 m/s
FIRE:Time      70.500 s Maximum wind           0.102E+01 m/s
FIRE:Time      70.500 s Fire area              0.000E+00 m^2
FIRE:Time      70.500 s Heat output            0.000E+00 W
FIRE:Time      70.500 s Max heat flux          0.000E+00 W/m^2
FIRE:Time      70.500 s Latent heat output     0.000E+00 W
FIRE:Time      70.500 s Max latent heat flux   0.000E+00 W/m^2
Timing for main: time 0001-01-01_00:01:10 on domain   1:    1.36054 elapsed seconds
FIRE:Time      71.000 s Average wind           0.102E+01 m/s
FIRE:Time      71.000 s Maximum wind           0.102E+01 m/s
FIRE:Time      71.000 s Fire area              0.000E+00 m^2
FIRE:Time      71.000 s Heat output            0.000E+00 W
FIRE:Time      71.000 s Max heat flux          0.000E+00 W/m^2
FIRE:Time      71.000 s Latent heat output     0.000E+00 W
FIRE:Time      71.000 s Max latent heat flux   0.000E+00 W/m^2
Timing for main: time 0001-01-01_00:01:11 on domain   1:    1.32334 elapsed seconds
FIRE:Time      71.500 s Average wind           0.102E+01 m/s
FIRE:Time      71.500 s Maximum wind           0.102E+01 m/s
FIRE:Time      71.500 s Fire area              0.000E+00 m^2
FIRE:Time      71.500 s Heat output            0.000E+00 W
FIRE:Time      71.500 s Max heat flux          0.000E+00 W/m^2
FIRE:Time      71.500 s Latent heat output     0.000E+00 W
FIRE:Time      71.500 s Max latent heat flux   0.000E+00 W/m^2
Timing for main: time 0001-01-01_00:01:11 on domain   1:    1.32384 elapsed seconds
FIRE:Time      72.000 s Average wind           0.102E+01 m/s
FIRE:Time      72.000 s Maximum wind           0.102E+01 m/s
FIRE:Time      72.000 s Fire area              0.000E+00 m^2
FIRE:Time      72.000 s Heat output            0.000E+00 W
FIRE:Time      72.000 s Max heat flux          0.000E+00 W/m^2
FIRE:Time      72.000 s Latent heat output     0.000E+00 W
FIRE:Time      72.000 s Max latent heat flux   0.000E+00 W/m^2
Timing for main: time 0001-01-01_00:01:12 on domain   1:    1.32290 elapsed seconds
FIRE:Time      72.500 s Average wind           0.102E+01 m/s
FIRE:Time      72.500 s Maximum wind           0.102E+01 m/s
FIRE:Time      72.500 s Fire area              0.000E+00 m^2
FIRE:Time      72.500 s Heat output            0.000E+00 W
FIRE:Time      72.500 s Max heat flux          0.000E+00 W/m^2
FIRE:Time      72.500 s Latent heat output     0.000E+00 W
FIRE:Time      72.500 s Max latent heat flux   0.000E+00 W/m^2
Timing for main: time 0001-01-01_00:01:12 on domain   1:    1.32337 elapsed seconds
FIRE:Time      73.000 s Average wind           0.102E+01 m/s
FIRE:Time      73.000 s Maximum wind           0.102E+01 m/s
FIRE:Time      73.000 s Fire area              0.000E+00 m^2
FIRE:Time      73.000 s Heat output            0.000E+00 W
FIRE:Time      73.000 s Max heat flux          0.000E+00 W/m^2
FIRE:Time      73.000 s Latent heat output     0.000E+00 W
FIRE:Time      73.000 s Max latent heat flux   0.000E+00 W/m^2
Timing for main: time 0001-01-01_00:01:13 on domain   1:    1.32371 elapsed seconds
FIRE:Time      73.500 s Average wind           0.102E+01 m/s
FIRE:Time      73.500 s Maximum wind           0.102E+01 m/s
FIRE:Time      73.500 s Fire area              0.000E+00 m^2
FIRE:Time      73.500 s Heat output            0.000E+00 W
FIRE:Time      73.500 s Max heat flux          0.000E+00 W/m^2
FIRE:Time      73.500 s Latent heat output     0.000E+00 W
FIRE:Time      73.500 s Max latent heat flux   0.000E+00 W/m^2
Timing for main: time 0001-01-01_00:01:13 on domain   1:    1.32357 elapsed seconds
FIRE:Time      74.000 s Average wind           0.102E+01 m/s
FIRE:Time      74.000 s Maximum wind           0.102E+01 m/s
FIRE:Time      74.000 s Fire area              0.000E+00 m^2
FIRE:Time      74.000 s Heat output            0.000E+00 W
FIRE:Time      74.000 s Max heat flux          0.000E+00 W/m^2
FIRE:Time      74.000 s Latent heat output     0.000E+00 W
FIRE:Time      74.000 s Max latent heat flux   0.000E+00 W/m^2
Timing for main: time 0001-01-01_00:01:14 on domain   1:    1.32399 elapsed seconds
FIRE:Time      74.500 s Average wind           0.102E+01 m/s
FIRE:Time      74.500 s Maximum wind           0.102E+01 m/s
FIRE:Time      74.500 s Fire area              0.000E+00 m^2
FIRE:Time      74.500 s Heat output            0.000E+00 W
FIRE:Time      74.500 s Max heat flux          0.000E+00 W/m^2
FIRE:Time      74.500 s Latent heat output     0.000E+00 W
FIRE:Time      74.500 s Max latent heat flux   0.000E+00 W/m^2
Timing for main: time 0001-01-01_00:01:14 on domain   1:    1.33485 elapsed seconds
FIRE:Time      75.000 s Average wind           0.102E+01 m/s
FIRE:Time      75.000 s Maximum wind           0.102E+01 m/s
FIRE:Time      75.000 s Fire area              0.000E+00 m^2
FIRE:Time      75.000 s Heat output            0.000E+00 W
FIRE:Time      75.000 s Max heat flux          0.000E+00 W/m^2
FIRE:Time      75.000 s Latent heat output     0.000E+00 W
FIRE:Time      75.000 s Max latent heat flux   0.000E+00 W/m^2
Timing for main: time 0001-01-01_00:01:15 on domain   1:    1.32519 elapsed seconds
FIRE:Time      75.500 s Average wind           0.102E+01 m/s
FIRE:Time      75.500 s Maximum wind           0.102E+01 m/s
FIRE:Time      75.500 s Fire area              0.000E+00 m^2
FIRE:Time      75.500 s Heat output            0.000E+00 W
FIRE:Time      75.500 s Max heat flux          0.000E+00 W/m^2
FIRE:Time      75.500 s Latent heat output     0.000E+00 W
FIRE:Time      75.500 s Max latent heat flux   0.000E+00 W/m^2
Timing for main: time 0001-01-01_00:01:15 on domain   1:    1.32579 elapsed seconds
FIRE:Time      76.000 s Average wind           0.102E+01 m/s
FIRE:Time      76.000 s Maximum wind           0.102E+01 m/s
FIRE:Time      76.000 s Fire area              0.000E+00 m^2
FIRE:Time      76.000 s Heat output            0.000E+00 W
FIRE:Time      76.000 s Max heat flux          0.000E+00 W/m^2
FIRE:Time      76.000 s Latent heat output     0.000E+00 W
FIRE:Time      76.000 s Max latent heat flux   0.000E+00 W/m^2
Timing for main: time 0001-01-01_00:01:16 on domain   1:    1.32354 elapsed seconds
FIRE:Time      76.500 s Average wind           0.102E+01 m/s
FIRE:Time      76.500 s Maximum wind           0.102E+01 m/s
FIRE:Time      76.500 s Fire area              0.000E+00 m^2
FIRE:Time      76.500 s Heat output            0.000E+00 W
FIRE:Time      76.500 s Max heat flux          0.000E+00 W/m^2
FIRE:Time      76.500 s Latent heat output     0.000E+00 W
FIRE:Time      76.500 s Max latent heat flux   0.000E+00 W/m^2
Timing for main: time 0001-01-01_00:01:16 on domain   1:    1.37024 elapsed seconds
FIRE:Time      77.000 s Average wind           0.102E+01 m/s
FIRE:Time      77.000 s Maximum wind           0.102E+01 m/s
[...]
FIRE:Time     341.000 s Fire area              0.229E+05 m^2
FIRE:Time     341.000 s Heat output            0.365E+09 W
FIRE:Time     341.000 s Max heat flux          0.245E+05 W/m^2
FIRE:Time     341.000 s Latent heat output     0.335E+08 W
FIRE:Time     341.000 s Max latent heat flux   0.225E+04 W/m^2
Timing for main: time 0001-01-01_00:05:41 on domain   1:    1.35088 elapsed seconds
FIRE:Time     341.500 s Average wind           0.102E+01 m/s
FIRE:Time     341.500 s Maximum wind           0.102E+01 m/s
FIRE:Time     341.500 s Fire area              0.230E+05 m^2
FIRE:Time     341.500 s Heat output            0.366E+09 W
FIRE:Time     341.500 s Max heat flux          0.215E+05 W/m^2
FIRE:Time     341.500 s Latent heat output     0.336E+08 W
FIRE:Time     341.500 s Max latent heat flux   0.197E+04 W/m^2
Timing for main: time 0001-01-01_00:05:41 on domain   1:    1.35024 elapsed seconds
FIRE:Time     342.000 s Average wind           0.102E+01 m/s
FIRE:Time     342.000 s Maximum wind           0.102E+01 m/s
FIRE:Time     342.000 s Fire area              0.231E+05 m^2
FIRE:Time     342.000 s Heat output            0.367E+09 W
FIRE:Time     342.000 s Max heat flux          0.239E+05 W/m^2
FIRE:Time     342.000 s Latent heat output     0.337E+08 W
FIRE:Time     342.000 s Max latent heat flux   0.220E+04 W/m^2
Timing for main: time 0001-01-01_00:05:42 on domain   1:    1.35092 elapsed seconds
FIRE:Time     342.500 s Average wind           0.102E+01 m/s
FIRE:Time     342.500 s Maximum wind           0.102E+01 m/s
FIRE:Time     342.500 s Fire area              0.231E+05 m^2
FIRE:Time     342.500 s Heat output            0.366E+09 W
FIRE:Time     342.500 s Max heat flux          0.262E+05 W/m^2
FIRE:Time     342.500 s Latent heat output     0.336E+08 W
FIRE:Time     342.500 s Max latent heat flux   0.240E+04 W/m^2
Timing for main: time 0001-01-01_00:05:42 on domain   1:    1.35152 elapsed seconds
FIRE:Time     343.000 s Average wind           0.102E+01 m/s
FIRE:Time     343.000 s Maximum wind           0.102E+01 m/s
FIRE:Time     343.000 s Fire area              0.232E+05 m^2
FIRE:Time     343.000 s Heat output            0.366E+09 W
FIRE:Time     343.000 s Max heat flux          0.221E+05 W/m^2
FIRE:Time     343.000 s Latent heat output     0.336E+08 W
FIRE:Time     343.000 s Max latent heat flux   0.202E+04 W/m^2
Timing for main: time 0001-01-01_00:05:43 on domain   1:    1.37651 elapsed seconds
FIRE:Time     343.500 s Average wind           0.102E+01 m/s
FIRE:Time     343.500 s Maximum wind           0.102E+01 m/s
FIRE:Time     343.500 s Fire area              0.233E+05 m^2
FIRE:Time     343.500 s Heat output            0.366E+09 W
FIRE:Time     343.500 s Max heat flux          0.245E+05 W/m^2
FIRE:Time     343.500 s Latent heat output     0.336E+08 W
FIRE:Time     343.500 s Max latent heat flux   0.225E+04 W/m^2
Timing for main: time 0001-01-01_00:05:43 on domain   1:    1.35087 elapsed seconds
FIRE:Time     344.000 s Average wind           0.102E+01 m/s
FIRE:Time     344.000 s Maximum wind           0.102E+01 m/s
FIRE:Time     344.000 s Fire area              0.233E+05 m^2
FIRE:Time     344.000 s Heat output            0.367E+09 W
FIRE:Time     344.000 s Max heat flux          0.215E+05 W/m^2
FIRE:Time     344.000 s Latent heat output     0.336E+08 W
FIRE:Time     344.000 s Max latent heat flux   0.197E+04 W/m^2
Timing for main: time 0001-01-01_00:05:44 on domain   1:    1.35127 elapsed seconds
FIRE:Time     344.500 s Average wind           0.102E+01 m/s
FIRE:Time     344.500 s Maximum wind           0.102E+01 m/s
FIRE:Time     344.500 s Fire area              0.234E+05 m^2
FIRE:Time     344.500 s Heat output            0.368E+09 W
FIRE:Time     344.500 s Max heat flux          0.239E+05 W/m^2
FIRE:Time     344.500 s Latent heat output     0.338E+08 W
FIRE:Time     344.500 s Max latent heat flux   0.220E+04 W/m^2
Timing for main: time 0001-01-01_00:05:44 on domain   1:    1.35102 elapsed seconds
FIRE:Time     345.000 s Average wind           0.102E+01 m/s
FIRE:Time     345.000 s Maximum wind           0.102E+01 m/s
FIRE:Time     345.000 s Fire area              0.235E+05 m^2
FIRE:Time     345.000 s Heat output            0.367E+09 W
FIRE:Time     345.000 s Max heat flux          0.262E+05 W/m^2
FIRE:Time     345.000 s Latent heat output     0.337E+08 W
FIRE:Time     345.000 s Max latent heat flux   0.240E+04 W/m^2
Timing for main: time 0001-01-01_00:05:45 on domain   1:    1.35120 elapsed seconds
FIRE:Time     345.500 s Average wind           0.102E+01 m/s
FIRE:Time     345.500 s Maximum wind           0.102E+01 m/s
FIRE:Time     345.500 s Fire area              0.235E+05 m^2
FIRE:Time     345.500 s Heat output            0.367E+09 W
FIRE:Time     345.500 s Max heat flux          0.220E+05 W/m^2
FIRE:Time     345.500 s Latent heat output     0.337E+08 W
FIRE:Time     345.500 s Max latent heat flux   0.202E+04 W/m^2
Timing for main: time 0001-01-01_00:05:45 on domain   1:    1.35171 elapsed seconds
FIRE:Time     346.000 s Average wind           0.102E+01 m/s
FIRE:Time     346.000 s Maximum wind           0.102E+01 m/s
FIRE:Time     346.000 s Fire area              0.236E+05 m^2
FIRE:Time     346.000 s Heat output            0.367E+09 W
FIRE:Time     346.000 s Max heat flux          0.245E+05 W/m^2
FIRE:Time     346.000 s Latent heat output     0.337E+08 W
FIRE:Time     346.000 s Max latent heat flux   0.225E+04 W/m^2
Timing for main: time 0001-01-01_00:05:46 on domain   1:    1.35101 elapsed seconds
FIRE:Time     346.500 s Average wind           0.102E+01 m/s
FIRE:Time     346.500 s Maximum wind           0.102E+01 m/s
FIRE:Time     346.500 s Fire area              0.237E+05 m^2
FIRE:Time     346.500 s Heat output            0.368E+09 W
FIRE:Time     346.500 s Max heat flux          0.215E+05 W/m^2
FIRE:Time     346.500 s Latent heat output     0.338E+08 W
FIRE:Time     346.500 s Max latent heat flux   0.197E+04 W/m^2
Timing for main: time 0001-01-01_00:05:46 on domain   1:    1.35204 elapsed seconds
FIRE:Time     347.000 s Average wind           0.102E+01 m/s
FIRE:Time     347.000 s Maximum wind           0.102E+01 m/s
FIRE:Time     347.000 s Fire area              0.238E+05 m^2
FIRE:Time     347.000 s Heat output            0.369E+09 W
FIRE:Time     347.000 s Max heat flux          0.239E+05 W/m^2
FIRE:Time     347.000 s Latent heat output     0.339E+08 W
FIRE:Time     347.000 s Max latent heat flux   0.220E+04 W/m^2
Timing for main: time 0001-01-01_00:05:47 on domain   1:    1.36561 elapsed seconds
FIRE:Time     347.500 s Average wind           0.102E+01 m/s
FIRE:Time     347.500 s Maximum wind           0.102E+01 m/s
FIRE:Time     347.500 s Fire area              0.238E+05 m^2
FIRE:Time     347.500 s Heat output            0.368E+09 W
FIRE:Time     347.500 s Max heat flux          0.262E+05 W/m^2
FIRE:Time     347.500 s Latent heat output     0.338E+08 W
FIRE:Time     347.500 s Max latent heat flux   0.240E+04 W/m^2
Timing for main: time 0001-01-01_00:05:47 on domain   1:    1.35069 elapsed seconds
FIRE:Time     348.000 s Average wind           0.102E+01 m/s
FIRE:Time     348.000 s Maximum wind           0.102E+01 m/s
FIRE:Time     348.000 s Fire area              0.239E+05 m^2
FIRE:Time     348.000 s Heat output            0.369E+09 W
FIRE:Time     348.000 s Max heat flux          0.221E+05 W/m^2
FIRE:Time     348.000 s Latent heat output     0.338E+08 W
FIRE:Time     348.000 s Max latent heat flux   0.202E+04 W/m^2
Timing for main: time 0001-01-01_00:05:48 on domain   1:    1.35136 elapsed seconds
FIRE:Time     348.500 s Average wind           0.102E+01 m/s
FIRE:Time     348.500 s Maximum wind           0.102E+01 m/s
FIRE:Time     348.500 s Fire area              0.240E+05 m^2
FIRE:Time     348.500 s Heat output            0.369E+09 W
FIRE:Time     348.500 s Max heat flux          0.245E+05 W/m^2
FIRE:Time     348.500 s Latent heat output     0.338E+08 W
FIRE:Time     348.500 s Max latent heat flux   0.225E+04 W/m^2
Timing for main: time 0001-01-01_00:05:48 on domain   1:    1.35143 elapsed seconds
FIRE:Time     349.000 s Average wind           0.102E+01 m/s
FIRE:Time     349.000 s Maximum wind           0.102E+01 m/s
FIRE:Time     349.000 s Fire area              0.240E+05 m^2
FIRE:Time     349.000 s Heat output            0.369E+09 W
FIRE:Time     349.000 s Max heat flux          0.215E+05 W/m^2
FIRE:Time     349.000 s Latent heat output     0.339E+08 W
FIRE:Time     349.000 s Max latent heat flux   0.197E+04 W/m^2
Timing for main: time 0001-01-01_00:05:49 on domain   1:    1.35088 elapsed seconds
FIRE:Time     349.500 s Average wind           0.102E+01 m/s
FIRE:Time     349.500 s Maximum wind           0.102E+01 m/s
FIRE:Time     349.500 s Fire area              0.241E+05 m^2
FIRE:Time     349.500 s Heat output            0.370E+09 W
FIRE:Time     349.500 s Max heat flux          0.239E+05 W/m^2
FIRE:Time     349.500 s Latent heat output     0.340E+08 W
FIRE:Time     349.500 s Max latent heat flux   0.220E+04 W/m^2
Timing for main: time 0001-01-01_00:05:49 on domain   1:    1.35129 elapsed seconds
FIRE:Time     350.000 s Average wind           0.102E+01 m/s
FIRE:Time     350.000 s Maximum wind           0.102E+01 m/s
FIRE:Time     350.000 s Fire area              0.242E+05 m^2
FIRE:Time     350.000 s Heat output            0.370E+09 W
FIRE:Time     350.000 s Max heat flux          0.262E+05 W/m^2
FIRE:Time     350.000 s Latent heat output     0.339E+08 W
FIRE:Time     350.000 s Max latent heat flux   0.240E+04 W/m^2
Timing for main: time 0001-01-01_00:05:50 on domain   1:    1.35145 elapsed seconds
FIRE:Time     350.500 s Average wind           0.102E+01 m/s
FIRE:Time     350.500 s Maximum wind           0.102E+01 m/s
FIRE:Time     350.500 s Fire area              0.242E+05 m^2
FIRE:Time     350.500 s Heat output            0.370E+09 W
FIRE:Time     350.500 s Max heat flux          0.221E+05 W/m^2
FIRE:Time     350.500 s Latent heat output     0.340E+08 W
FIRE:Time     350.500 s Max latent heat flux   0.202E+04 W/m^2
Timing for main: time 0001-01-01_00:05:50 on domain   1:    1.35141 elapsed seconds
FIRE:Time     351.000 s Average wind           0.102E+01 m/s
FIRE:Time     351.000 s Maximum wind           0.102E+01 m/s
FIRE:Time     351.000 s Fire area              0.243E+05 m^2
FIRE:Time     351.000 s Heat output            0.370E+09 W
FIRE:Time     351.000 s Max heat flux          0.245E+05 W/m^2
FIRE:Time     351.000 s Latent heat output     0.340E+08 W
FIRE:Time     351.000 s Max latent heat flux   0.225E+04 W/m^2
Timing for main: time 0001-01-01_00:05:51 on domain   1:    1.36355 elapsed seconds
FIRE:Time     351.500 s Average wind           0.102E+01 m/s
FIRE:Time     351.500 s Maximum wind           0.102E+01 m/s
FIRE:Time     351.500 s Fire area              0.244E+05 m^2
FIRE:Time     351.500 s Heat output            0.371E+09 W
FIRE:Time     351.500 s Max heat flux          0.215E+05 W/m^2
FIRE:Time     351.500 s Latent heat output     0.340E+08 W
FIRE:Time     351.500 s Max latent heat flux   0.197E+04 W/m^2
Timing for main: time 0001-01-01_00:05:51 on domain   1:    1.35148 elapsed seconds
FIRE:Time     352.000 s Average wind           0.102E+01 m/s
FIRE:Time     352.000 s Maximum wind           0.102E+01 m/s
FIRE:Time     352.000 s Fire area              0.244E+05 m^2
FIRE:Time     352.000 s Heat output            0.372E+09 W
FIRE:Time     352.000 s Max heat flux          0.239E+05 W/m^2
FIRE:Time     352.000 s Latent heat output     0.341E+08 W
FIRE:Time     352.000 s Max latent heat flux   0.220E+04 W/m^2
Timing for main: time 0001-01-01_00:05:52 on domain   1:    1.35119 elapsed seconds
FIRE:Time     352.500 s Average wind           0.102E+01 m/s
FIRE:Time     352.500 s Maximum wind           0.102E+01 m/s
FIRE:Time     352.500 s Fire area              0.245E+05 m^2
FIRE:Time     352.500 s Heat output            0.371E+09 W
FIRE:Time     352.500 s Max heat flux          0.262E+05 W/m^2
FIRE:Time     352.500 s Latent heat output     0.341E+08 W
FIRE:Time     352.500 s Max latent heat flux   0.240E+04 W/m^2
Timing for main: time 0001-01-01_00:05:52 on domain   1:    1.35171 elapsed seconds
FIRE:Time     353.000 s Average wind           0.102E+01 m/s
FIRE:Time     353.000 s Maximum wind           0.102E+01 m/s
FIRE:Time     353.000 s Fire area              0.246E+05 m^2
FIRE:Time     353.000 s Heat output            0.371E+09 W
FIRE:Time     353.000 s Max heat flux          0.220E+05 W/m^2
FIRE:Time     353.000 s Latent heat output     0.341E+08 W
FIRE:Time     353.000 s Max latent heat flux   0.202E+04 W/m^2
Timing for main: time 0001-01-01_00:05:53 on domain   1:    1.35095 elapsed seconds
FIRE:Time     353.500 s Average wind           0.102E+01 m/s
FIRE:Time     353.500 s Maximum wind           0.102E+01 m/s
FIRE:Time     353.500 s Fire area              0.246E+05 m^2
FIRE:Time     353.500 s Heat output            0.372E+09 W
FIRE:Time     353.500 s Max heat flux          0.245E+05 W/m^2
FIRE:Time     353.500 s Latent heat output     0.341E+08 W
FIRE:Time     353.500 s Max latent heat flux   0.225E+04 W/m^2
Timing for main: time 0001-01-01_00:05:53 on domain   1:    1.35194 elapsed seconds
FIRE:Time     354.000 s Average wind           0.102E+01 m/s
FIRE:Time     354.000 s Maximum wind           0.102E+01 m/s
FIRE:Time     354.000 s Fire area              0.247E+05 m^2
FIRE:Time     354.000 s Heat output            0.372E+09 W
FIRE:Time     354.000 s Max heat flux          0.215E+05 W/m^2
FIRE:Time     354.000 s Latent heat output     0.341E+08 W
FIRE:Time     354.000 s Max latent heat flux   0.197E+04 W/m^2
Timing for main: time 0001-01-01_00:05:54 on domain   1:    1.35203 elapsed seconds
FIRE:Time     354.500 s Average wind           0.102E+01 m/s
FIRE:Time     354.500 s Maximum wind           0.102E+01 m/s
FIRE:Time     354.500 s Fire area              0.248E+05 m^2
FIRE:Time     354.500 s Heat output            0.373E+09 W
FIRE:Time     354.500 s Max heat flux          0.239E+05 W/m^2
FIRE:Time     354.500 s Latent heat output     0.343E+08 W
FIRE:Time     354.500 s Max latent heat flux   0.220E+04 W/m^2
Timing for main: time 0001-01-01_00:05:54 on domain   1:    1.35117 elapsed seconds
FIRE:Time     355.000 s Average wind           0.102E+01 m/s
FIRE:Time     355.000 s Maximum wind           0.102E+01 m/s
FIRE:Time     355.000 s Fire area              0.249E+05 m^2
FIRE:Time     355.000 s Heat output            0.373E+09 W
FIRE:Time     355.000 s Max heat flux          0.262E+05 W/m^2
FIRE:Time     355.000 s Latent heat output     0.342E+08 W
FIRE:Time     355.000 s Max latent heat flux   0.240E+04 W/m^2
Timing for main: time 0001-01-01_00:05:55 on domain   1:    1.35251 elapsed seconds
FIRE:Time     355.500 s Average wind           0.102E+01 m/s
FIRE:Time     355.500 s Maximum wind           0.102E+01 m/s
FIRE:Time     355.500 s Fire area              0.249E+05 m^2
FIRE:Time     355.500 s Heat output            0.373E+09 W
FIRE:Time     355.500 s Max heat flux          0.221E+05 W/m^2
FIRE:Time     355.500 s Latent heat output     0.342E+08 W
FIRE:Time     355.500 s Max latent heat flux   0.202E+04 W/m^2
Timing for main: time 0001-01-01_00:05:55 on domain   1:    1.35149 elapsed seconds
FIRE:Time     356.000 s Average wind           0.102E+01 m/s
FIRE:Time     356.000 s Maximum wind           0.102E+01 m/s
FIRE:Time     356.000 s Fire area              0.250E+05 m^2
FIRE:Time     356.000 s Heat output            0.373E+09 W
FIRE:Time     356.000 s Max heat flux          0.246E+05 W/m^2
FIRE:Time     356.000 s Latent heat output     0.343E+08 W
FIRE:Time     356.000 s Max latent heat flux   0.225E+04 W/m^2
Timing for main: time 0001-01-01_00:05:56 on domain   1:    1.35159 elapsed seconds
FIRE:Time     356.500 s Average wind           0.102E+01 m/s
FIRE:Time     356.500 s Maximum wind           0.102E+01 m/s
FIRE:Time     356.500 s Fire area              0.251E+05 m^2
FIRE:Time     356.500 s Heat output            0.373E+09 W
FIRE:Time     356.500 s Max heat flux          0.203E+05 W/m^2
FIRE:Time     356.500 s Latent heat output     0.342E+08 W
FIRE:Time     356.500 s Max latent heat flux   0.187E+04 W/m^2
Timing for main: time 0001-01-01_00:05:56 on domain   1:    1.35199 elapsed seconds
FIRE:Time     357.000 s Average wind           0.102E+01 m/s
FIRE:Time     357.000 s Maximum wind           0.102E+01 m/s
FIRE:Time     357.000 s Fire area              0.251E+05 m^2
FIRE:Time     357.000 s Heat output            0.373E+09 W
FIRE:Time     357.000 s Max heat flux          0.234E+05 W/m^2
FIRE:Time     357.000 s Latent heat output     0.343E+08 W
FIRE:Time     357.000 s Max latent heat flux   0.215E+04 W/m^2
Timing for main: time 0001-01-01_00:05:57 on domain   1:    1.35193 elapsed seconds
FIRE:Time     357.500 s Average wind           0.102E+01 m/s
FIRE:Time     357.500 s Maximum wind           0.102E+01 m/s
FIRE:Time     357.500 s Fire area              0.252E+05 m^2
FIRE:Time     357.500 s Heat output            0.372E+09 W
FIRE:Time     357.500 s Max heat flux          0.194E+05 W/m^2
FIRE:Time     357.500 s Latent heat output     0.341E+08 W
FIRE:Time     357.500 s Max latent heat flux   0.178E+04 W/m^2
Timing for main: time 0001-01-01_00:05:57 on domain   1:    1.35085 elapsed seconds
FIRE:Time     358.000 s Average wind           0.102E+01 m/s
FIRE:Time     358.000 s Maximum wind           0.102E+01 m/s
FIRE:Time     358.000 s Fire area              0.253E+05 m^2
FIRE:Time     358.000 s Heat output            0.373E+09 W
FIRE:Time     358.000 s Max heat flux          0.194E+05 W/m^2
FIRE:Time     358.000 s Latent heat output     0.342E+08 W
FIRE:Time     358.000 s Max latent heat flux   0.178E+04 W/m^2
Timing for main: time 0001-01-01_00:05:58 on domain   1:    1.35228 elapsed seconds
FIRE:Time     358.500 s Average wind           0.102E+01 m/s
FIRE:Time     358.500 s Maximum wind           0.102E+01 m/s
FIRE:Time     358.500 s Fire area              0.253E+05 m^2
FIRE:Time     358.500 s Heat output            0.373E+09 W
FIRE:Time     358.500 s Max heat flux          0.194E+05 W/m^2
FIRE:Time     358.500 s Latent heat output     0.343E+08 W
FIRE:Time     358.500 s Max latent heat flux   0.178E+04 W/m^2
Timing for main: time 0001-01-01_00:05:58 on domain   1:    1.35176 elapsed seconds
FIRE:Time     359.000 s Average wind           0.102E+01 m/s
FIRE:Time     359.000 s Maximum wind           0.102E+01 m/s
FIRE:Time     359.000 s Fire area              0.254E+05 m^2
FIRE:Time     359.000 s Heat output            0.375E+09 W
FIRE:Time     359.000 s Max heat flux          0.202E+05 W/m^2
FIRE:Time     359.000 s Latent heat output     0.345E+08 W
FIRE:Time     359.000 s Max latent heat flux   0.185E+04 W/m^2
Timing for main: time 0001-01-01_00:05:59 on domain   1:    1.37264 elapsed seconds
FIRE:Time     359.500 s Average wind           0.102E+01 m/s
FIRE:Time     359.500 s Maximum wind           0.102E+01 m/s
FIRE:Time     359.500 s Fire area              0.255E+05 m^2
FIRE:Time     359.500 s Heat output            0.375E+09 W
FIRE:Time     359.500 s Max heat flux          0.195E+05 W/m^2
FIRE:Time     359.500 s Latent heat output     0.344E+08 W
FIRE:Time     359.500 s Max latent heat flux   0.179E+04 W/m^2
Timing for main: time 0001-01-01_00:05:59 on domain   1:    1.35216 elapsed seconds
FIRE:Time     360.000 s Average wind           0.102E+01 m/s
FIRE:Time     360.000 s Maximum wind           0.102E+01 m/s
FIRE:Time     360.000 s Fire area              0.256E+05 m^2
FIRE:Time     360.000 s Heat output            0.375E+09 W
FIRE:Time     360.000 s Max heat flux          0.196E+05 W/m^2
FIRE:Time     360.000 s Latent heat output     0.344E+08 W
FIRE:Time     360.000 s Max latent heat flux   0.180E+04 W/m^2
Timing for main: time 0001-01-01_00:06:00 on domain   1:    1.35214 elapsed seconds
Timing for Writing wrfout_d01_0001-01-01_00:06:00 for domain        1:    1.24281 elapsed seconds
d01 0001-01-01_00:06:00 wrf: SUCCESS COMPLETE WRF
